1
    SWAT Dec 23 2016    VER 2016/Rev 664                                                                 0/ 0/   0      0: 0: 0

    General Input/Output section (file.cio):                                        
    2023/9/29 0:00:00 ARCGIS-SWAT interface AV                                      
                                                                                    
         Number of years in run:   10
         Area of watershed:    18761.051 km2
         Random number generator cycles: 0, use default numbers

         Initial random number seed: wet/dry day prob        748932582
         Initial random number seed: radiation              1948832765
         Initial random number seed: precipitation           857034417
         Initial random number seed: 0.5 hr rainfall          67377721
         Initial random number seed: wind speed              366304404
         Initial random number seed: irrigation             1094585182
         Initial random number seed: relative humidity      1767585417
         Initial random number seed: max temperature         608439319
         Initial random number seed: min temperature         592757081

         Precipitation data used in run:
          Multiple gages read for watershed
             Daily rainfall data used

         Temperature data used in run:
          Multiple gages read for watershed

         PET method used: Penman-Monteith

         Rainfall/Runoff/Routing Option:
          Daily rainfall data
          Runoff estimated with curve number method
          Daily stream routing
           Variable Storage routing method
           Channel dimensions remain constant
           Subbasin algae/CBOD loadings not modeled
           In-stream nutrient transformations modeled using QUAL2E equations

         Subbasin Input Summary:
          Sub Latitude  Elev(m) #HRUs Ponds Elevbnds Wetlnd
            1    43.04   723.02     4                   
            2    43.04   897.55     2                   
            3    43.04   737.26     2                   
            4    43.04   684.26     2                   
            5    42.78   625.63     2                   
            6    42.78   684.95     2                   
            7    43.00   511.63     2                   
            8    43.00   609.41     4                   
            9    42.92   547.36     2                   
           10    42.92   537.70     2                   
           11    42.69   580.48     2                   
           12    42.69   709.49     7                   
           13    42.71   718.83     4                   
           14    42.71   604.58     2                   
           15    42.66   666.52     2                   
           16    42.66   794.95     2                   
           17    42.65  1151.89     1                   
           18    42.65   583.33     3                   
           19    42.65   672.21     4                   
           20    42.65   965.26     3                   
           21    42.55   983.29     1                   
           22    42.55   573.35     2                   
           23    42.64   484.19     2                   
           24    42.64   688.61     4                   
           25    42.64   747.48     1                   
           26    42.64   731.45     3                   
           27    42.64   927.01     4                   
           28    42.64  1002.86     1                   
           29    42.64   742.70     4                   
           30    42.64   687.09     3                   
           31    42.64  1016.75     3                   
           32    42.64   834.70     3                   
           33    42.64   819.90     2                   
           34    42.46   814.23     3                   
           35    42.46  1322.23     3                   
           36    42.46   844.12     4                   
           37    42.46  1176.88     3                   

         HRU Input Summary Table 1:
          Sub   HRU   Area(ha) Slope SlpLgth(m) Ovrlnd_N CondII_CN TimeConc(hr) ESCO EPCO
            1      1    9433.52 0.189      23.58    0.100     80.98        1.422 0.03 0.31
            1      2   12822.70 0.105      23.58    0.100     80.98        1.843 0.03 0.31
            1      3    5834.03 0.190      23.58    0.100     66.56        0.986 0.03 0.31
            1      4    7380.22 0.107      23.58    0.100     66.56        1.206 0.03 0.31
            2      5   44680.31 0.104      23.58    0.100     98.00        2.419 0.03 0.31
            2      6   50924.66 0.199      23.58    0.100     98.00        2.657 0.03 0.31
            3      7   65442.99 0.106      23.58    0.100     74.58        4.247 0.03 0.31
            3      8   84083.47 0.197      23.58    0.100     74.58        5.213 0.03 0.31
            4      9   47245.00 0.195      23.58    0.100     98.00        2.798 0.03 0.31
            4     10   49793.16 0.104      23.58    0.100     98.00        2.954 0.03 0.31
            5     11    2092.10 0.198      23.58    0.100     75.92        0.625 0.03 0.31
            5     12    1294.72 0.107      23.58    0.100     75.92        0.493 0.03 0.31
            6     13   25319.27 0.108      23.58    0.100     96.61        2.318 0.03 0.31
            6     14   24768.86 0.193      23.58    0.100     96.61        2.249 0.03 0.31
            7     15    4095.11 0.094      23.58    0.100     83.65        0.992 0.03 0.31
            7     16    1687.76 0.204      23.58    0.100     83.65        0.520 0.03 0.31
            8     17   14559.46 0.289      23.58    0.100     98.00        1.031 0.03 0.31
            8     18   21293.09 0.203      23.58    0.100     98.00        1.399 0.03 0.31
            8     19   20878.18 0.106      23.58    0.100     98.00        1.410 0.03 0.31
            8     20   24893.55 0.197      23.58    0.100     98.00        1.584 0.03 0.31
            9     21   10162.60 0.198      23.58    0.100     92.97        0.860 0.03 0.31
            9     22    8858.08 0.104      23.58    0.100     92.97        0.812 0.03 0.31
           10     23     773.37 0.093      23.58    0.100     94.95        0.714 0.03 0.31
           10     24     665.57 0.031      23.58    0.100     94.95        0.723 0.03 0.31
           11     25     724.64 0.090      23.58    0.100     98.00        0.548 0.03 0.31
           11     26    1341.43 0.099      23.58    0.100     80.67        0.798 0.03 0.31
           12     27    2603.43 0.097      23.58    0.140     98.00        0.633 0.03 0.31
           12     28     776.80 0.187      23.58    0.140     98.00        0.329 0.03 0.31
           12     29    1319.79 0.109      23.58    0.140     98.00        0.444 0.03 0.31
           12     30    2520.12 0.095      23.58    0.140     98.00        0.624 0.03 0.31
           12     31    3806.78 0.109      23.58    0.100     94.75        0.745 0.03 0.31
           12     32    3187.24 0.192      23.58    0.100     94.75        0.635 0.03 0.31
           12     33    4184.33 0.098      23.58    0.100     77.88        0.799 0.03 0.31
           13     34    5306.25 0.086      23.58    0.100     88.10        1.118 0.03 0.31
           13     35    8812.51 0.026      23.58    0.100     88.10        1.718 0.03 0.31
           13     36    6059.30 0.095      23.58    0.100     72.41        1.226 0.03 0.31
           13     37    6666.95 0.025      23.58    0.100     72.41        1.410 0.03 0.31
           14     38    3971.39 0.088      23.58    0.100     98.00        1.209 0.03 0.31
           14     39    6993.50 0.030      23.58    0.100     98.00        1.934 0.03 0.31
           15     40  102148.51 0.293      23.58    0.100     98.00        5.025 0.03 0.31
           15     41  128535.17 0.202      23.58    0.100     98.00        6.130 0.03 0.31
           16     42   26029.57 0.078      23.58    0.100     93.07        2.082 0.03 0.31
           16     43   34577.71 0.032      23.58    0.100     93.07        2.675 0.03 0.31
           17     44   38271.21 0.027      23.58    0.100     93.20        4.136 0.03 0.31
           18     45    4943.98 0.032      23.58    0.100     98.00        1.036 0.03 0.31
           18     46    2608.36 0.078      23.58    0.100     98.00        0.643 0.03 0.31
           18     47   10137.75 0.098      23.58    0.100     98.00        1.639 0.03 0.31
           19     48   14600.82 0.083      23.58    0.100     73.46        1.111 0.03 0.31
           19     49   33644.83 0.028      23.58    0.100     73.46        2.171 0.03 0.31
           19     50   20366.05 0.030      23.58    0.100     73.46        1.490 0.03 0.31
           19     51   27287.11 0.095      23.58    0.100     73.46        1.770 0.03 0.31
           20     52   31570.50 0.029      23.58    0.100     98.00        3.210 0.03 0.31
           20     53   10302.61 0.081      23.58    0.100     98.00        1.302 0.03 0.31
           20     54   13429.87 0.031      23.58    0.100     98.00        1.656 0.03 0.31
           21     55   66779.25 0.023      23.58    0.100     98.00        4.778 0.03 0.31
           22     56   13866.00 0.201      23.58    0.100     94.43        1.384 0.03 0.31
           22     57    9673.45 0.106      23.58    0.100     94.43        1.082 0.03 0.31
           23     58     123.95 0.102      23.58    0.100     98.00        0.279 0.03 0.31
           23     59      51.71 0.014      23.58    0.100     98.00        0.379 0.03 0.31
           24     60   13956.61 0.298      23.58    0.100     74.11        0.976 0.03 0.31
           24     61   10665.40 0.205      23.58    0.100     74.11        0.815 0.03 0.31
           24     62    9283.68 0.293      23.58    0.100     74.11        0.724 0.03 0.31
           24     63   12436.91 0.202      23.58    0.100     74.11        0.912 0.03 0.31
           25     64   41187.68 0.100      23.58    0.026     80.88        3.457 0.03 0.31
           26     65   20510.63 0.031      23.58    0.100     95.03        2.697 0.03 0.31
           26     66    7860.96 0.072      23.58    0.100     95.03        1.256 0.03 0.31
           26     67   29747.71 0.092      23.58    0.100     95.03        3.559 0.03 0.31
           27     68   16766.54 0.032      23.58    0.100     96.95        2.626 0.03 0.31
           27     69   10748.92 0.075      23.58    0.100     96.95        1.805 0.03 0.31
           27     70    6655.95 0.083      23.58    0.100     96.95        1.250 0.03 0.31
           27     71    4290.24 0.034      23.58    0.100     96.95        0.974 0.03 0.31
           28     72  132927.27 0.026      23.58    0.100     98.00        5.803 0.03 0.31
           29     73    5593.08 0.439      23.58    0.100     98.00        1.365 0.03 0.31
           29     74    4709.87 0.300      23.58    0.100     98.00        1.205 0.03 0.31
           29     75    4254.41 0.298      23.58    0.100     98.00        1.114 0.03 0.31
           29     76    4680.03 0.202      23.58    0.100     98.00        1.216 0.03 0.31
           30     77     759.79 0.463      23.58    0.100     98.00        0.339 0.03 0.31
           30     78     734.65 0.295      23.58    0.100     98.00        0.350 0.03 0.31
           30     79     824.46 0.200      23.58    0.100     98.00        0.389 0.03 0.31
           31     80   67356.57 0.029      23.58    0.100     98.00        3.064 0.03 0.31
           31     81   16175.34 0.082      23.58    0.100     98.00        0.999 0.03 0.31
           31     82   14683.34 0.031      23.58    0.100     98.00        1.001 0.03 0.31
           32     83   14423.79 0.031      23.58    0.100     98.00        1.934 0.03 0.31
           32     84    6183.12 0.075      23.58    0.100     98.00        0.998 0.03 0.31
           32     85   25825.17 0.094      23.58    0.100     98.00        2.970 0.03 0.31
           33     86   28480.84 0.295      23.58    0.100     98.00        2.783 0.03 0.31
           33     87   31730.80 0.203      23.58    0.100     98.00        3.062 0.03 0.31
           34     88    8064.00 0.080      23.58    0.100     98.00        1.566 0.03 0.31
           34     89   13669.23 0.030      23.58    0.100     98.00        2.436 0.03 0.31
           34     90   20886.82 0.093      23.58    0.100     98.00        3.334 0.03 0.31
           35     91   22969.38 0.028      23.58    0.100     98.00        1.645 0.03 0.31
           35     92   10563.87 0.085      23.58    0.100     98.00        0.891 0.03 0.31
           35     93   16406.31 0.029      23.58    0.100     98.00        1.292 0.03 0.31
           36     94     127.70 0.075      23.58    0.100     98.00        0.300 0.03 0.31
           36     95     217.77 0.031      23.58    0.100     98.00        0.420 0.03 0.31
           36     96     196.21 0.092      23.58    0.100     98.00        0.333 0.03 0.31
           36     97     265.22 0.028      23.58    0.100     98.00        0.457 0.03 0.31
           37     98   18347.84 0.032      23.58    0.100     98.00        1.370 0.03 0.31
           37     99   15898.02 0.084      23.58    0.100     98.00        1.173 0.03 0.31
           37    100   18834.26 0.089      23.58    0.100     98.00        1.326 0.03 0.31

         HRU CN Input Summary Table:
          Sub   HRU   Area(ha)  LULC      Soil    CN1    CN2    CN3  Wilting Point (mm H2O)  Field Capacity (mm H2O)  Saturation (mm H2O)
            1      1    9433.52  FRST  Haplic L   64.3   81.0   92.0                    41.1                    154.1                204.1
            1      2   12822.70  FRST  Haplic L   64.3   81.0   92.0                    41.1                    154.1                204.1
            1      3    5834.03  FRST  Haplic P   47.4   66.6   83.4                    35.4                    156.4                209.8
            1      4    7380.22  FRST  Haplic P   47.4   66.6   83.4                    35.4                    156.4                209.8
            2      5   44680.31  FRST  Haplic L   94.9   98.0   99.3                    41.1                    154.1                204.1
            2      6   50924.66  FRST  Haplic L   94.9   98.0   99.3                    41.1                    154.1                204.1
            3      7   65442.99  FRST  Haplic L   56.4   74.6   88.5                    41.1                    154.1                204.1
            3      8   84083.47  FRST  Haplic L   56.4   74.6   88.5                    41.1                    154.1                204.1
            4      9   47245.00  FRST  Haplic L   94.9   98.0   99.3                    41.1                    154.1                204.1
            4     10   49793.16  FRST  Haplic L   94.9   98.0   99.3                    41.1                    154.1                204.1
            5     11    2092.10  FRST  Haplic L   57.9   75.9   89.3                    41.1                    154.1                204.1
            5     12    1294.72  FRST  Haplic L   57.9   75.9   89.3                    41.1                    154.1                204.1
            6     13   25319.27  FRST  Haplic L   91.6   96.6   98.8                    41.1                    154.1                204.1
            6     14   24768.86  FRST  Haplic L   91.6   96.6   98.8                    41.1                    154.1                204.1
            7     15    4095.11  FRST  Dystric    67.9   83.7   93.4                    96.4                    116.2                526.2
            7     16    1687.76  FRST  Haplic L   67.9   83.7   93.4                   157.8                     62.6                224.9
            8     17   14559.46  FRST  Dystric    94.9   98.0   99.3                    96.4                    116.2                526.2
            8     18   21293.09  FRST  Dystric    94.9   98.0   99.3                    96.4                    116.2                526.2
            8     19   20878.18  FRST  Haplic L   94.9   98.0   99.3                   157.8                     62.6                224.9
            8     20   24893.55  FRST  Haplic L   94.9   98.0   99.3                   157.8                     62.6                224.9
            9     21   10162.60  FRST  Haplic L   83.6   93.0   97.5                   157.8                     62.6                224.9
            9     22    8858.08  FRST  Haplic L   83.6   93.0   97.5                   157.8                     62.6                224.9
           10     23     773.37  FRST  Haplic P   87.8   95.0   98.2                    35.4                    156.4                209.8
           10     24     665.57  FRST  Haplic P   87.8   95.0   98.2                    35.4                    156.4                209.8
           11     25     724.64  FRST  Haplic L   94.9   98.0   99.3                    41.1                    154.1                204.1
           11     26    1341.43  FRST  Haplic P   63.9   80.7   91.9                    35.4                    156.4                209.8
           12     27    2603.43  AGRL  Dystric    94.9   98.0   99.3                   136.8                     67.1                108.5
           12     28     776.80  AGRL  Haplic L   94.9   98.0   99.3                    41.1                    154.1                204.1
           12     29    1319.79  AGRL  Haplic L   94.9   98.0   99.3                    41.1                    154.1                204.1
           12     30    2520.12  AGRL  Haplic P   94.9   98.0   99.3                    35.4                    156.4                209.8
           12     31    3806.78  FRST  Haplic L   87.4   94.7   98.2                    41.1                    154.1                204.1
           12     32    3187.24  FRST  Haplic L   87.4   94.7   98.2                    41.1                    154.1                204.1
           12     33    4184.33  FRST  Haplic P   60.3   77.9   90.4                    35.4                    156.4                209.8
           13     34    5306.25  FRST  Dystric    74.7   88.1   95.4                   136.8                     67.1                108.5
           13     35    8812.51  FRST  Dystric    74.7   88.1   95.4                   136.8                     67.1                108.5
           13     36    6059.30  FRST  Haplic P   53.9   72.4   87.2                    35.4                    156.4                209.8
           13     37    6666.95  FRST  Haplic P   53.9   72.4   87.2                    35.4                    156.4                209.8
           14     38    3971.39  FRST  Dystric    94.9   98.0   99.3                   136.8                     67.1                108.5
           14     39    6993.50  FRST  Dystric    94.9   98.0   99.3                   136.8                     67.1                108.5
           15     40  102148.51  FRST  Dystric    94.9   98.0   99.3                    96.4                    116.2                526.2
           15     41  128535.17  FRST  Dystric    94.9   98.0   99.3                    96.4                    116.2                526.2
           16     42   26029.57  FRST  Dystric    83.8   93.1   97.5                   136.8                     67.1                108.5
           16     43   34577.71  FRST  Dystric    83.8   93.1   97.5                   136.8                     67.1                108.5
           17     44   38271.21  FRST  Haplic L   84.1   93.2   97.6                    41.1                    154.1                204.1
           18     45    4943.98  FRST  Dystric    94.9   98.0   99.3                   114.9                     58.5                488.5
           18     46    2608.36  FRST  Dystric    94.9   98.0   99.3                   114.9                     58.5                488.5
           18     47   10137.75  FRST  Haplic L   94.9   98.0   99.3                   157.8                     62.6                224.9
           19     48   14600.82  FRST  Dystric    55.1   73.5   87.8                   137.2                    142.5                433.3
           19     49   33644.83  FRST  Dystric    55.1   73.5   87.8                   137.2                    142.5                433.3
           19     50   20366.05  FRST  Haplic L   55.1   73.5   87.8                   157.8                     62.6                224.9
           19     51   27287.11  FRST  Haplic L   55.1   73.5   87.8                   157.8                     62.6                224.9
           20     52   31570.50  FRST  Dystric    94.9   98.0   99.3                   136.8                     67.1                108.5
           20     53   10302.61  FRST  Haplic L   94.9   98.0   99.3                    41.1                    154.1                204.1
           20     54   13429.87  FRST  Haplic L   94.9   98.0   99.3                    41.1                    154.1                204.1
           21     55   66779.25  FRST  Dystric    94.9   98.0   99.3                   136.8                     67.1                108.5
           22     56   13866.00  FRST  Haplic L   86.7   94.4   98.0                   157.8                     62.6                224.9
           22     57    9673.45  FRST  Haplic L   86.7   94.4   98.0                   157.8                     62.6                224.9
           23     58     123.95  FRST  Haplic L   94.9   98.0   99.3                    82.8                    113.0                426.6
           23     59      51.71  BERM  Haplic L   94.9   98.0   99.3                    82.8                    113.0                426.6
           24     60   13956.61  FRST  Dystric    55.8   74.1   88.2                    96.4                    116.2                526.2
           24     61   10665.40  FRST  Dystric    55.8   74.1   88.2                    96.4                    116.2                526.2
           24     62    9283.68  FRST  Haplic L   55.8   74.1   88.2                   157.8                     62.6                224.9
           24     63   12436.91  FRST  Haplic L   55.8   74.1   88.2                   157.8                     62.6                224.9
           25     64   41187.68  FRST  Dystric    64.1   80.9   92.0                   114.9                     58.5                488.5
           26     65   20510.63  FRST  Dystric    88.0   95.0   98.3                   109.2                     74.0                400.2
           26     66    7860.96  FRST  Dystric    88.0   95.0   98.3                   109.2                     74.0                400.2
           26     67   29747.71  FRST  Haplic L   88.0   95.0   98.3                    82.8                    113.0                426.6
           27     68   16766.54  FRST  Dystric    92.4   97.0   99.0                   109.2                     74.0                400.2
           27     69   10748.92  FRST  Dystric    92.4   97.0   99.0                   109.2                     74.0                400.2
           27     70    6655.95  FRST  Haplic L   92.4   97.0   99.0                    82.8                    113.0                426.6
           27     71    4290.24  FRST  Haplic L   92.4   97.0   99.0                    82.8                    113.0                426.6
           28     72  132927.27  FRST  Haplic L   94.9   98.0   99.3                    41.1                    154.1                204.1
           29     73    5593.08  FRST  Dystric    94.9   98.0   99.3                   114.4                     32.0                431.3
           29     74    4709.87  FRST  Dystric    94.9   98.0   99.3                   114.4                     32.0                431.3
           29     75    4254.41  FRST  Haplic L   94.9   98.0   99.3                    82.8                    113.0                426.6
           29     76    4680.03  FRST  Haplic L   94.9   98.0   99.3                    82.8                    113.0                426.6
           30     77     759.79  FRST  Haplic L   94.9   98.0   99.3                    82.8                    113.0                426.6
           30     78     734.65  FRST  Haplic L   94.9   98.0   99.3                    82.8                    113.0                426.6
           30     79     824.46  FRST  Haplic L   94.9   98.0   99.3                    82.8                    113.0                426.6
           31     80   67356.57  FRST  Dystric    94.9   98.0   99.3                   109.2                     74.0                400.2
           31     81   16175.34  FRST  Haplic L   94.9   98.0   99.3                    82.8                    113.0                426.6
           31     82   14683.34  FRST  Haplic L   94.9   98.0   99.3                    82.8                    113.0                426.6
           32     83   14423.79  FRST  Dystric    94.9   98.0   99.3                   109.2                     74.0                400.2
           32     84    6183.12  FRST  Dystric    94.9   98.0   99.3                   109.2                     74.0                400.2
           32     85   25825.17  FRST  Haplic L   94.9   98.0   99.3                    82.8                    113.0                426.6
           33     86   28480.84  FRST  Haplic L   94.9   98.0   99.3                    82.8                    113.0                426.6
           33     87   31730.80  FRST  Haplic L   94.9   98.0   99.3                    82.8                    113.0                426.6
           34     88    8064.00  FRST  Dystric    94.9   98.0   99.3                   109.2                     74.0                400.2
           34     89   13669.23  FRST  Dystric    94.9   98.0   99.3                   109.2                     74.0                400.2
           34     90   20886.82  FRST  Haplic L   94.9   98.0   99.3                    82.8                    113.0                426.6
           35     91   22969.38  FRST  Dystric    94.9   98.0   99.3                   109.2                     74.0                400.2
           35     92   10563.87  FRST  Haplic L   94.9   98.0   99.3                    82.8                    113.0                426.6
           35     93   16406.31  FRST  Haplic L   94.9   98.0   99.3                    82.8                    113.0                426.6
           36     94     127.70  FRST  Dystric    94.9   98.0   99.3                   109.2                     74.0                400.2
           36     95     217.77  FRST  Dystric    94.9   98.0   99.3                   109.2                     74.0                400.2
           36     96     196.21  FRST  Haplic L   94.9   98.0   99.3                    82.8                    113.0                426.6
           36     97     265.22  FRST  Haplic L   94.9   98.0   99.3                    82.8                    113.0                426.6
           37     98   18347.84  FRST  Dystric    94.9   98.0   99.3                   109.2                     74.0                400.2
           37     99   15898.02  FRST  Dystric    94.9   98.0   99.3                   109.2                     74.0                400.2
           37    100   18834.26  FRST  Haplic L   94.9   98.0   99.3                    82.8                    113.0                426.6

         HRU Input Summary Table 2:
          Sub   HRU   Area(ha)         SoilName Hydgrp MaxRtDpth(mm) Albedo USLE_K USLE_P USLE_LS ProfileAWC(mm) IniSoilH2O(mm)
            1      1    9433.52 Haplic Luvisols2   C          1000.00   0.10   0.17   1.00    3.29    154.143         40.063
            1      2   12822.70 Haplic Luvisols2   C          1000.00   0.10   0.17   1.00    1.30    154.143         40.063
            1      3    5834.03 Haplic Phaeozems   B          1000.00   0.10   0.13   1.00    3.32    156.441         40.661
            1      4    7380.22 Haplic Phaeozems   B          1000.00   0.10   0.13   1.00    1.34    156.441         40.661
            2      5   44680.31 Haplic Luvisols2   C          1000.00   0.10   0.17   1.00    1.28    154.143         40.063
            2      6   50924.66 Haplic Luvisols2   C          1000.00   0.10   0.17   1.00    3.58    154.143         40.063
            3      7   65442.99 Haplic Luvisols2   C          1000.00   0.10   0.17   1.00    1.32    154.143         40.063
            3      8   84083.47 Haplic Luvisols2   C          1000.00   0.10   0.17   1.00    3.52    154.143         40.063
            4      9   47245.00 Haplic Luvisols2   C          1000.00   0.10   0.17   1.00    3.46    154.143         40.063
            4     10   49793.16 Haplic Luvisols2   C          1000.00   0.10   0.17   1.00    1.28    154.143         40.063
            5     11    2092.10 Haplic Luvisols2   C          1000.00   0.10   0.17   1.00    3.55    154.143         40.063
            5     12    1294.72 Haplic Luvisols2   C          1000.00   0.10   0.17   1.00    1.34    154.143         40.063
            6     13   25319.27 Haplic Luvisols2   C          1000.00   0.10   0.17   1.00    1.36    154.143         40.063
            6     14   24768.86 Haplic Luvisols2   C          1000.00   0.10   0.17   1.00    3.41    154.143         40.063
            7     15    4095.11 Dystric Podzoluv   C          1000.00   0.10   0.16   1.00    1.10    116.156         36.851
            7     16    1687.76 Haplic Luvisols2   C          1000.00   0.10   0.17   1.00    3.73     62.562         19.848
            8     17   14559.46 Dystric Podzoluv   C          1000.00   0.10   0.16   1.00    6.62    116.156         36.851
            8     18   21293.09 Dystric Podzoluv   C          1000.00   0.10   0.16   1.00    3.70    116.156         36.851
            8     19   20878.18 Haplic Luvisols2   C          1000.00   0.10   0.17   1.00    1.32     62.562         19.848
            8     20   24893.55 Haplic Luvisols2   C          1000.00   0.10   0.17   1.00    3.52     62.562         19.848
            9     21   10162.60 Haplic Luvisols2   C          1000.00   0.10   0.17   1.00    3.55     62.562         19.848
            9     22    8858.08 Haplic Luvisols2   C          1000.00   0.10   0.17   1.00    1.28     62.562         19.848
           10     23     773.37 Haplic Phaeozems   B          1000.00   0.10   0.13   1.00    1.09    156.441         40.661
           10     24     665.57 Haplic Phaeozems   B          1000.00   0.10   0.13   1.00    0.28    156.441         40.661
           11     25     724.64 Haplic Luvisols2   C          1000.00   0.10   0.17   1.00    1.04    154.143         40.063
           11     26    1341.43 Haplic Phaeozems   B          1000.00   0.10   0.13   1.00    1.19    156.441         40.661
           12     27    2603.43 Dystric Podzoluv   C          1000.00   0.10   0.17   1.00    1.16     67.079         17.435
           12     28     776.80 Haplic Luvisols2   C          1000.00   0.10   0.17   1.00    3.23    154.143         40.063
           12     29    1319.79 Haplic Luvisols2   C          1000.00   0.10   0.17   1.00    1.38    154.143         40.063
           12     30    2520.12 Haplic Phaeozems   B          1000.00   0.10   0.13   1.00    1.12    156.441         40.661
           12     31    3806.78 Haplic Luvisols2   C          1000.00   0.10   0.17   1.00    1.38    154.143         40.063
           12     32    3187.24 Haplic Luvisols2   C          1000.00   0.10   0.17   1.00    3.38    154.143         40.063
           12     33    4184.33 Haplic Phaeozems   B          1000.00   0.10   0.13   1.00    1.17    156.441         40.661
           13     34    5306.25 Dystric Podzoluv   C          1000.00   0.10   0.17   1.00    0.97     67.079         17.435
           13     35    8812.51 Dystric Podzoluv   C          1000.00   0.10   0.17   1.00    0.23     67.079         17.435
           13     36    6059.30 Haplic Phaeozems   B          1000.00   0.10   0.13   1.00    1.12    156.441         40.661
           13     37    6666.95 Haplic Phaeozems   B          1000.00   0.10   0.13   1.00    0.22    156.441         40.661
           14     38    3971.39 Dystric Podzoluv   C          1000.00   0.10   0.17   1.00    1.00     67.079         17.435
           14     39    6993.50 Dystric Podzoluv   C          1000.00   0.10   0.17   1.00    0.27     67.079         17.435
           15     40  102148.51 Dystric Podzoluv   C          1000.00   0.10   0.16   1.00    6.77    116.156         30.190
           15     41  128535.17 Dystric Podzoluv   C          1000.00   0.10   0.16   1.00    3.67    116.156         30.190
           16     42   26029.57 Dystric Podzoluv   C          1000.00   0.10   0.17   1.00    0.84     67.079         17.435
           16     43   34577.71 Dystric Podzoluv   C          1000.00   0.10   0.17   1.00    0.29     67.079         17.435
           17     44   38271.21 Haplic Luvisols2   C          1000.00   0.10   0.17   1.00    0.24    154.143         40.063
           18     45    4943.98 Dystric Podzoluv   C          1000.00   0.10   0.17   1.00    0.29     58.486         18.555
           18     46    2608.36 Dystric Podzoluv   C          1000.00   0.10   0.17   1.00    0.84     58.486         18.555
           18     47   10137.75 Haplic Luvisols2   C          1000.00   0.10   0.17   1.00    1.17     62.562         19.848
           19     48   14600.82 Dystric Podzoluv   C          1000.00   0.10   0.16   1.00    0.92    142.531         45.219
           19     49   33644.83 Dystric Podzoluv   C          1000.00   0.10   0.16   1.00    0.25    142.531         45.219
           19     50   20366.05 Haplic Luvisols2   C          1000.00   0.10   0.17   1.00    0.27     62.562         19.848
           19     51   27287.11 Haplic Luvisols2   C          1000.00   0.10   0.17   1.00    1.12     62.562         19.848
           20     52   31570.50 Dystric Podzoluv   C          1000.00   0.10   0.17   1.00    0.26     67.079         17.435
           20     53   10302.61 Haplic Luvisols2   C          1000.00   0.10   0.17   1.00    0.89    154.143         40.063
           20     54   13429.87 Haplic Luvisols2   C          1000.00   0.10   0.17   1.00    0.28    154.143         40.063
           21     55   66779.25 Dystric Podzoluv   C          1000.00   0.10   0.17   1.00    0.21     67.079         17.435
           22     56   13866.00 Haplic Luvisols2   C          1000.00   0.10   0.17   1.00    3.64     62.562         19.848
           22     57    9673.45 Haplic Luvisols2   C          1000.00   0.10   0.17   1.00    1.32     62.562         19.848
           23     58     123.95 Haplic Luvisols2   C          1000.00   0.10   0.17   1.00    1.25    113.000         35.850
           23     59      51.71 Haplic Luvisols2   C          1000.00   0.10   0.17   1.00    0.14    113.000         35.850
           24     60   13956.61 Dystric Podzoluv   C          1000.00   0.10   0.16   1.00    6.96    116.156         36.851
           24     61   10665.40 Dystric Podzoluv   C          1000.00   0.10   0.16   1.00    3.76    116.156         36.851
           24     62    9283.68 Haplic Luvisols2   C          1000.00   0.10   0.17   1.00    6.77     62.562         19.848
           24     63   12436.91 Haplic Luvisols2   C          1000.00   0.10   0.17   1.00    3.67     62.562         19.848
           25     64   41187.68 Dystric Podzoluv   C          1000.00   0.10   0.17   1.00    1.21     58.486         18.555
           26     65   20510.63 Dystric Podzoluv   C          1000.00   0.10   0.17   1.00    0.28     74.000         27.197
           26     66    7860.96 Dystric Podzoluv   C          1000.00   0.10   0.17   1.00    0.76     74.000         27.197
           26     67   29747.71 Haplic Luvisols2   C          1000.00   0.10   0.17   1.00    1.07    113.000         41.530
           27     68   16766.54 Dystric Podzoluv   C          1000.00   0.10   0.17   1.00    0.29     74.000         27.197
           27     69   10748.92 Dystric Podzoluv   C          1000.00   0.10   0.17   1.00    0.80     74.000         27.197
           27     70    6655.95 Haplic Luvisols2   C          1000.00   0.10   0.17   1.00    0.92    113.000         41.530
           27     71    4290.24 Haplic Luvisols2   C          1000.00   0.10   0.17   1.00    0.30    113.000         41.530
           28     72  132927.27 Haplic Luvisols2   C          1000.00   0.10   0.17   1.00    0.23    154.143         40.063
           29     73    5593.08 Dystric Podzoluv   C          1000.00   0.10   0.16   1.00   12.95     32.000         10.152
           29     74    4709.87 Dystric Podzoluv   C          1000.00   0.10   0.16   1.00    7.04     32.000         10.152
           29     75    4254.41 Haplic Luvisols2   C          1000.00   0.10   0.17   1.00    6.96    113.000         35.850
           29     76    4680.03 Haplic Luvisols2   C          1000.00   0.10   0.17   1.00    3.67    113.000         35.850
           30     77     759.79 Haplic Luvisols2   C          1000.00   0.10   0.17   1.00   14.05    113.000         41.530
           30     78     734.65 Haplic Luvisols2   C          1000.00   0.10   0.17   1.00    6.85    113.000         41.530
           30     79     824.46 Haplic Luvisols2   C          1000.00   0.10   0.17   1.00    3.61    113.000         41.530
           31     80   67356.57 Dystric Podzoluv   C          1000.00   0.10   0.17   1.00    0.26     74.000         27.197
           31     81   16175.34 Haplic Luvisols2   C          1000.00   0.10   0.17   1.00    0.91    113.000         41.530
           31     82   14683.34 Haplic Luvisols2   C          1000.00   0.10   0.17   1.00    0.28    113.000         41.530
           32     83   14423.79 Dystric Podzoluv   C          1000.00   0.10   0.17   1.00    0.28     74.000         27.197
           32     84    6183.12 Dystric Podzoluv   C          1000.00   0.10   0.17   1.00    0.80     74.000         27.197
           32     85   25825.17 Haplic Luvisols2   C          1000.00   0.10   0.17   1.00    1.10    113.000         41.530
           33     86   28480.84 Haplic Luvisols2   C          1000.00   0.10   0.17   1.00    6.85    113.000         35.850
           33     87   31730.80 Haplic Luvisols2   C          1000.00   0.10   0.17   1.00    3.70    113.000         35.850
           34     88    8064.00 Dystric Podzoluv   C          1000.00   0.10   0.17   1.00    0.88     74.000         27.197
           34     89   13669.23 Dystric Podzoluv   C          1000.00   0.10   0.17   1.00    0.27     74.000         27.197
           34     90   20886.82 Haplic Luvisols2   C          1000.00   0.10   0.17   1.00    1.09    113.000         41.530
           35     91   22969.38 Dystric Podzoluv   C          1000.00   0.10   0.17   1.00    0.25     74.000         27.197
           35     92   10563.87 Haplic Luvisols2   C          1000.00   0.10   0.17   1.00    0.95    113.000         41.530
           35     93   16406.31 Haplic Luvisols2   C          1000.00   0.10   0.17   1.00    0.26    113.000         41.530
           36     94     127.70 Dystric Podzoluv   C          1000.00   0.10   0.17   1.00    0.80     74.000         27.197
           36     95     217.77 Dystric Podzoluv   C          1000.00   0.10   0.17   1.00    0.28     74.000         27.197
           36     96     196.21 Haplic Luvisols2   C          1000.00   0.10   0.17   1.00    1.07    113.000         41.530
           36     97     265.22 Haplic Luvisols2   C          1000.00   0.10   0.17   1.00    0.25    113.000         41.530
           37     98   18347.84 Dystric Podzoluv   C          1000.00   0.10   0.17   1.00    0.29     74.000         27.197
           37     99   15898.02 Dystric Podzoluv   C          1000.00   0.10   0.17   1.00    0.94     74.000         27.197
           37    100   18834.26 Haplic Luvisols2   C          1000.00   0.10   0.17   1.00    1.02    113.000         41.530

         HRU Input Summary Table 3:
          Sub   HRU   Area(ha) Urban Irrig DrainTiles Pothole Pstcide Biomix Septic
            1      1    9433.52                                          0.20 x
            1      2   12822.70                                          0.20 x
            1      3    5834.03                                          0.20 x
            1      4    7380.22                                          0.20 x
            2      5   44680.31                                          0.20 x
            2      6   50924.66                                          0.20 x
            3      7   65442.99                                          0.20 x
            3      8   84083.47                                          0.20 x
            4      9   47245.00                                          0.20 x
            4     10   49793.16                                          0.20 x
            5     11    2092.10                                          0.20 x
            5     12    1294.72                                          0.20 x
            6     13   25319.27                                          0.20 x
            6     14   24768.86                                          0.20 x
            7     15    4095.11                                          0.20 x
            7     16    1687.76                                          0.20 x
            8     17   14559.46                                          0.20 x
            8     18   21293.09                                          0.20 x
            8     19   20878.18                                          0.20 x
            8     20   24893.55                                          0.20 x
            9     21   10162.60                                          0.20 x
            9     22    8858.08                                          0.20 x
           10     23     773.37                                          0.20 x
           10     24     665.57                                          0.20 x
           11     25     724.64                                          0.20 x
           11     26    1341.43                                          0.20 x
           12     27    2603.43                                          0.20 x
           12     28     776.80                                          0.20 x
           12     29    1319.79                                          0.20 x
           12     30    2520.12                                          0.20 x
           12     31    3806.78                                          0.20 x
           12     32    3187.24                                          0.20 x
           12     33    4184.33                                          0.20 x
           13     34    5306.25                                          0.20 x
           13     35    8812.51                                          0.20 x
           13     36    6059.30                                          0.20 x
           13     37    6666.95                                          0.20 x
           14     38    3971.39                                          0.20 x
           14     39    6993.50                                          0.20 x
           15     40  102148.51                                          0.20 x
           15     41  128535.17                                          0.20 x
           16     42   26029.57                                          0.20 x
           16     43   34577.71                                          0.20 x
           17     44   38271.21                                          0.20 x
           18     45    4943.98                                          0.20 x
           18     46    2608.36                                          0.20 x
           18     47   10137.75                                          0.20 x
           19     48   14600.82                                          0.20 x
           19     49   33644.83                                          0.20 x
           19     50   20366.05                                          0.20 x
           19     51   27287.11                                          0.20 x
           20     52   31570.50                                          0.20 x
           20     53   10302.61                                          0.20 x
           20     54   13429.87                                          0.20 x
           21     55   66779.25                                          0.20 x
           22     56   13866.00                                          0.20 x
           22     57    9673.45                                          0.20 x
           23     58     123.95                                          0.20 x
           23     59      51.71   x                                      0.20 x
           24     60   13956.61                                          0.20 x
           24     61   10665.40                                          0.20 x
           24     62    9283.68                                          0.20 x
           24     63   12436.91                                          0.20 x
           25     64   41187.68                                          0.20 x
           26     65   20510.63                                          0.20 x
           26     66    7860.96                                          0.20 x
           26     67   29747.71                                          0.20 x
           27     68   16766.54                                          0.20 x
           27     69   10748.92                                          0.20 x
           27     70    6655.95                                          0.20 x
           27     71    4290.24                                          0.20 x
           28     72  132927.27                                          0.20 x
           29     73    5593.08                                          0.20 x
           29     74    4709.87                                          0.20 x
           29     75    4254.41                                          0.20 x
           29     76    4680.03                                          0.20 x
           30     77     759.79                                          0.20 x
           30     78     734.65                                          0.20 x
           30     79     824.46                                          0.20 x
           31     80   67356.57                                          0.20 x
           31     81   16175.34                                          0.20 x
           31     82   14683.34                                          0.20 x
           32     83   14423.79                                          0.20 x
           32     84    6183.12                                          0.20 x
           32     85   25825.17                                          0.20 x
           33     86   28480.84                                          0.20 x
           33     87   31730.80                                          0.20 x
           34     88    8064.00                                          0.20 x
           34     89   13669.23                                          0.20 x
           34     90   20886.82                                          0.20 x
           35     91   22969.38                                          0.20 x
           35     92   10563.87                                          0.20 x
           35     93   16406.31                                          0.20 x
           36     94     127.70                                          0.20 x
           36     95     217.77                                          0.20 x
           36     96     196.21                                          0.20 x
           36     97     265.22                                          0.20 x
           37     98   18347.84                                          0.20 x
           37     99   15898.02                                          0.20 x
           37    100   18834.26                                          0.20 x

         HRU Input Summary Table 4 (Groundwater):
          Sub   HRU   Area(ha) GWdelay(days), GWalpha(days) GWQmin(mm) GWrevap Revapmin(mm) Deepfr NO3(ppm) SolP(ppm)
            1      1    9433.52       346.228         0.504   2269.310   0.020      464.500  0.587    0.000     0.000
            1      2   12822.70       346.228         0.504   2269.310   0.020      464.500  0.587    0.000     0.000
            1      3    5834.03       346.228         0.504   2269.310   0.020      464.500  0.587    0.000     0.000
            1      4    7380.22       346.228         0.504   2269.310   0.020      464.500  0.587    0.000     0.000
            2      5   44680.31       346.228         0.504   2269.310   0.020      464.500  0.587    0.000     0.000
            2      6   50924.66       346.228         0.504   2269.310   0.020      464.500  0.587    0.000     0.000
            3      7   65442.99       346.228         0.504   2269.310   0.020      464.500  0.587    0.000     0.000
            3      8   84083.47       346.228         0.504   2269.310   0.020      464.500  0.587    0.000     0.000
            4      9   47245.00       346.228         0.504   2269.310   0.020      464.500  0.587    0.000     0.000
            4     10   49793.16       346.228         0.504   2269.310   0.020      464.500  0.587    0.000     0.000
            5     11    2092.10       346.228         0.504   2269.310   0.020      464.500  0.587    0.000     0.000
            5     12    1294.72       346.228         0.504   2269.310   0.020      464.500  0.587    0.000     0.000
            6     13   25319.27       346.228         0.504   2269.310   0.020      464.500  0.587    0.000     0.000
            6     14   24768.86       346.228         0.504   2269.310   0.020      464.500  0.587    0.000     0.000
            7     15    4095.11       346.228         0.504   2269.310   0.020      464.500  0.587    0.000     0.000
            7     16    1687.76       346.228         0.504   2269.310   0.020      464.500  0.587    0.000     0.000
            8     17   14559.46       346.228         0.504   2269.310   0.020      464.500  0.587    0.000     0.000
            8     18   21293.09       346.228         0.504   2269.310   0.020      464.500  0.587    0.000     0.000
            8     19   20878.18       346.228         0.504   2269.310   0.020      464.500  0.587    0.000     0.000
            8     20   24893.55       346.228         0.504   2269.310   0.020      464.500  0.587    0.000     0.000
            9     21   10162.60       346.228         0.504   2269.310   0.020      464.500  0.587    0.000     0.000
            9     22    8858.08       346.228         0.504   2269.310   0.020      464.500  0.587    0.000     0.000
           10     23     773.37       346.228         0.504   2269.310   0.020      464.500  0.587    0.000     0.000
           10     24     665.57       346.228         0.504   2269.310   0.020      464.500  0.587    0.000     0.000
           11     25     724.64       346.228         0.504   2269.310   0.020      464.500  0.587    0.000     0.000
           11     26    1341.43       346.228         0.504   2269.310   0.020      464.500  0.587    0.000     0.000
           12     27    2603.43       346.228         0.504   2269.310   0.020      464.500  0.587    0.000     0.000
           12     28     776.80       346.228         0.504   2269.310   0.020      464.500  0.587    0.000     0.000
           12     29    1319.79       346.228         0.504   2269.310   0.020      464.500  0.587    0.000     0.000
           12     30    2520.12       346.228         0.504   2269.310   0.020      464.500  0.587    0.000     0.000
           12     31    3806.78       346.228         0.504   2269.310   0.020      464.500  0.587    0.000     0.000
           12     32    3187.24       346.228         0.504   2269.310   0.020      464.500  0.587    0.000     0.000
           12     33    4184.33       346.228         0.504   2269.310   0.020      464.500  0.587    0.000     0.000
           13     34    5306.25       346.228         0.504   2269.310   0.020      464.500  0.587    0.000     0.000
           13     35    8812.51       346.228         0.504   2269.310   0.020      464.500  0.587    0.000     0.000
           13     36    6059.30       346.228         0.504   2269.310   0.020      464.500  0.587    0.000     0.000
           13     37    6666.95       346.228         0.504   2269.310   0.020      464.500  0.587    0.000     0.000
           14     38    3971.39       346.228         0.504   2269.310   0.020      464.500  0.587    0.000     0.000
           14     39    6993.50       346.228         0.504   2269.310   0.020      464.500  0.587    0.000     0.000
           15     40  102148.51       346.228         0.504   2269.310   0.020      464.500  0.587    0.000     0.000
           15     41  128535.17       346.228         0.504   2269.310   0.020      464.500  0.587    0.000     0.000
           16     42   26029.57       346.228         0.504   2269.310   0.020      464.500  0.587    0.000     0.000
           16     43   34577.71       346.228         0.504   2269.310   0.020      464.500  0.587    0.000     0.000
           17     44   38271.21       346.228         0.504   2269.310   0.020      464.500  0.587    0.000     0.000
           18     45    4943.98       346.228         0.504   2269.310   0.020      464.500  0.587    0.000     0.000
           18     46    2608.36       346.228         0.504   2269.310   0.020      464.500  0.587    0.000     0.000
           18     47   10137.75       346.228         0.504   2269.310   0.020      464.500  0.587    0.000     0.000
           19     48   14600.82       346.228         0.504   2269.310   0.020      464.500  0.587    0.000     0.000
           19     49   33644.83       346.228         0.504   2269.310   0.020      464.500  0.587    0.000     0.000
           19     50   20366.05       346.228         0.504   2269.310   0.020      464.500  0.587    0.000     0.000
           19     51   27287.11       346.228         0.504   2269.310   0.020      464.500  0.587    0.000     0.000
           20     52   31570.50       346.228         0.504   2269.310   0.020      464.500  0.587    0.000     0.000
           20     53   10302.61       346.228         0.504   2269.310   0.020      464.500  0.587    0.000     0.000
           20     54   13429.87       346.228         0.504   2269.310   0.020      464.500  0.587    0.000     0.000
           21     55   66779.25       346.228         0.504   2269.310   0.020      464.500  0.587    0.000     0.000
           22     56   13866.00       346.228         0.504   2269.310   0.020      464.500  0.587    0.000     0.000
           22     57    9673.45       346.228         0.504   2269.310   0.020      464.500  0.587    0.000     0.000
           23     58     123.95       346.228         0.504   2269.310   0.020      464.500  0.587    0.000     0.000
           23     59      51.71       346.228         0.504   2269.310   0.020      464.500  0.587    0.000     0.000
           24     60   13956.61       346.228         0.504   2269.310   0.020      464.500  0.587    0.000     0.000
           24     61   10665.40       346.228         0.504   2269.310   0.020      464.500  0.587    0.000     0.000
           24     62    9283.68       346.228         0.504   2269.310   0.020      464.500  0.587    0.000     0.000
           24     63   12436.91       346.228         0.504   2269.310   0.020      464.500  0.587    0.000     0.000
           25     64   41187.68       346.228         0.504   2269.310   0.020      464.500  0.587    0.000     0.000
           26     65   20510.63       346.228         0.504   2269.310   0.020      464.500  0.587    0.000     0.000
           26     66    7860.96       346.228         0.504   2269.310   0.020      464.500  0.587    0.000     0.000
           26     67   29747.71       346.228         0.504   2269.310   0.020      464.500  0.587    0.000     0.000
           27     68   16766.54       346.228         0.504   2269.310   0.020      464.500  0.587    0.000     0.000
           27     69   10748.92       346.228         0.504   2269.310   0.020      464.500  0.587    0.000     0.000
           27     70    6655.95       346.228         0.504   2269.310   0.020      464.500  0.587    0.000     0.000
           27     71    4290.24       346.228         0.504   2269.310   0.020      464.500  0.587    0.000     0.000
           28     72  132927.27       346.228         0.504   2269.310   0.020      464.500  0.587    0.000     0.000
           29     73    5593.08       346.228         0.504   2269.310   0.020      464.500  0.587    0.000     0.000
           29     74    4709.87       346.228         0.504   2269.310   0.020      464.500  0.587    0.000     0.000
           29     75    4254.41       346.228         0.504   2269.310   0.020      464.500  0.587    0.000     0.000
           29     76    4680.03       346.228         0.504   2269.310   0.020      464.500  0.587    0.000     0.000
           30     77     759.79       346.228         0.504   2269.310   0.020      464.500  0.587    0.000     0.000
           30     78     734.65       346.228         0.504   2269.310   0.020      464.500  0.587    0.000     0.000
           30     79     824.46       346.228         0.504   2269.310   0.020      464.500  0.587    0.000     0.000
           31     80   67356.57       346.228         0.504   2269.310   0.020      464.500  0.587    0.000     0.000
           31     81   16175.34       346.228         0.504   2269.310   0.020      464.500  0.587    0.000     0.000
           31     82   14683.34       346.228         0.504   2269.310   0.020      464.500  0.587    0.000     0.000
           32     83   14423.79       346.228         0.504   2269.310   0.020      464.500  0.587    0.000     0.000
           32     84    6183.12       346.228         0.504   2269.310   0.020      464.500  0.587    0.000     0.000
           32     85   25825.17       346.228         0.504   2269.310   0.020      464.500  0.587    0.000     0.000
           33     86   28480.84       346.228         0.504   2269.310   0.020      464.500  0.587    0.000     0.000
           33     87   31730.80       346.228         0.504   2269.310   0.020      464.500  0.587    0.000     0.000
           34     88    8064.00       346.228         0.504   2269.310   0.020      464.500  0.587    0.000     0.000
           34     89   13669.23       346.228         0.504   2269.310   0.020      464.500  0.587    0.000     0.000
           34     90   20886.82       346.228         0.504   2269.310   0.020      464.500  0.587    0.000     0.000
           35     91   22969.38       346.228         0.504   2269.310   0.020      464.500  0.587    0.000     0.000
           35     92   10563.87       346.228         0.504   2269.310   0.020      464.500  0.587    0.000     0.000
           35     93   16406.31       346.228         0.504   2269.310   0.020      464.500  0.587    0.000     0.000
           36     94     127.70       346.228         0.504   2269.310   0.020      464.500  0.587    0.000     0.000
           36     95     217.77       346.228         0.504   2269.310   0.020      464.500  0.587    0.000     0.000
           36     96     196.21       346.228         0.504   2269.310   0.020      464.500  0.587    0.000     0.000
           36     97     265.22       346.228         0.504   2269.310   0.020      464.500  0.587    0.000     0.000
           37     98   18347.84       346.228         0.504   2269.310   0.020      464.500  0.587    0.000     0.000
           37     99   15898.02       346.228         0.504   2269.310   0.020      464.500  0.587    0.000     0.000
           37    100   18834.26       346.228         0.504   2269.310   0.020      464.500  0.587    0.000     0.000

         Tributary/Main Channel Characteristics
              |--------------Tributary--------------------|---------------------Main---------------------------|
          Sub  Length(km) Slope Width(m) Cond(mm/hr)     N Length(km) Slope Width(m) Depth(m) Cond(mm/hr)     N
            1       49.54 0.006    43.99      0.0000 0.014       0.77 0.001    43.99     1.37     10.6250 0.165
            2       77.60 0.012    79.36      0.0000 0.014      19.83 0.002    79.36     2.03     10.6250 0.165
            3      121.90 0.006   103.80      0.0000 0.014      72.07 0.001   103.80     2.42     10.6250 0.165
            4       71.80 0.007    79.57      0.0000 0.014      54.16 0.002   133.46     2.87     10.6250 0.165
            5       11.31 0.027    10.59      0.0000 0.014       1.03 0.002   294.07     4.85     10.6250 0.165
            6       64.79 0.013    53.33      0.0000 0.014      19.26 0.001   194.58     3.68     10.6250 0.165
            7       14.06 0.012    15.01      0.0000 0.014       9.41 0.001   472.65     6.66     10.6250 0.165
            8       68.54 0.011    72.18      0.0000 0.014      21.57 0.000    72.18     1.90     10.6250 0.165
            9       21.64 0.020    30.10      0.0000 0.014       3.55 0.001   281.46     4.71     10.6250 0.165
           10       10.68 0.017     6.34      0.0000 0.014       9.22 0.002   280.77     4.70     10.6250 0.165
           11       11.05 0.017     7.87      0.0000 0.014       9.26 0.000   268.61     4.57     10.6250 0.165
           12       37.98 0.019    29.24      0.0000 0.014       8.00 0.000   141.79     2.98     10.6250 0.165
           13       57.18 0.012    36.68      0.0000 0.014       8.38 0.001   110.59     2.53     10.6250 0.165
           14       27.05 0.007    21.43      0.0000 0.014      25.72 0.003   158.00     3.21     10.6250 0.165
           15      151.51 0.006   133.72      0.0000 0.014     123.76 0.000   339.23     5.34     10.6250 0.165
           16       65.41 0.012    59.79      0.0000 0.014      14.77 0.005    59.79     1.68     10.6250 0.165
           17       82.31 0.025    46.29      0.0000 0.014       9.81 0.007    46.29     1.41     10.6250 0.165
           18       39.94 0.019    28.56      0.0000 0.014      25.80 0.001   259.32     4.46     10.6250 0.165
           19       78.59 0.010    79.16      0.0000 0.014      40.93 0.004    79.16     2.02     10.6250 0.165
           20       89.74 0.017    56.59      0.0000 0.014      43.47 0.007    56.59     1.62     10.6250 0.165
           21       96.74 0.022    64.22      0.0000 0.014      37.81 0.006    64.22     1.76     10.6250 0.165
           22       26.97 0.010    33.90      0.0000 0.014      16.12 0.001   232.95     4.15     10.6250 0.165
           23        2.10 0.081     1.79      0.0000 0.014       1.25 0.001   205.17     3.82     10.6250 0.165
           24       43.00 0.016    50.90      0.0000 0.014      26.29 0.001   217.00     3.96     10.6250 0.165
           25       55.52 0.013    47.72      0.0000 0.014      12.84 0.005    47.72     1.44     10.6250 0.165
           26       89.66 0.009    58.31      0.0000 0.014      50.61 0.003   120.47     2.68     10.6250 0.165
           27       78.96 0.013    45.51      0.0000 0.014      12.23 0.008    45.51     1.40     10.6250 0.165
           28      114.47 0.014    99.68      0.0000 0.014      60.29 0.007    99.68     2.36     10.6250 0.165
           29       52.77 0.012    30.03      0.0000 0.014      23.84 0.002   149.18     3.09     10.6250 0.165
           30       10.12 0.039     8.44      0.0000 0.014       9.61 0.004   121.57     2.69     10.6250 0.165
           31       87.40 0.023    79.88      0.0000 0.014      35.98 0.005    79.88     2.04     10.6250 0.165
           32       70.62 0.010    51.40      0.0000 0.014      10.47 0.008    51.40     1.52     10.6250 0.165
           33       77.08 0.009    60.12      0.0000 0.014      30.16 0.004    60.12     1.68     10.6250 0.165
           34       83.96 0.009    48.52      0.0000 0.014      70.50 0.004   102.30     2.40     10.6250 0.165
           35       62.77 0.030    53.72      0.0000 0.014       8.78 0.007    53.72     1.56     10.6250 0.165
           36        5.15 0.015     4.48      0.0000 0.014       4.14 0.002    56.31     1.61     10.6250 0.165
           37       55.41 0.019    55.81      0.0000 0.014       4.90 0.004    55.81     1.60     10.6250 0.165
