1
    SWAT Dec 23 2016    VER 2016/Rev 664                                                                 0/ 0/   0      0: 0: 0

    General Input/Output section (file.cio):                                        
    2023/9/29 0:00:00 ARCGIS-SWAT interface AV                                      
                                                                                    
         Number of years in run:   10
         Area of watershed:    18761.051 km2
1
    SWAT Dec 23 2016    VER 2016/Rev 664                                            

    General Input/Output section (file.cio):                                        
    2023/9/29 0:00:00 ARCGIS-SWAT interface AV                                      
                                                                                    
Annual Summary for Watershed in year    1 of simulation

UNIT                                    PERCO    TILE                           WATER     SED     NO3     NO3     NO3     NO3        N       P       P
TIME     PREC    SURQ    LATQ     GWQ    LATE       Q     SW       ET     PET   YIELD   YIELD    SURQ    LATQ    PERC    CROP  ORGANIC SOLUBLE ORGANIC TILENO3
         (mm)    (mm)    (mm)    (mm)    (mm)    (mm)    (mm)    (mm)    (mm)    (mm)   (t/ha)  ------------------(kg nutrient/ha)-------------------- (kg/ha)
1
    SWAT Dec 23 2016    VER 2016/Rev 664                                            

    General Input/Output section (file.cio):                                        
    2023/9/29 0:00:00 ARCGIS-SWAT interface AV                                      
                                                                                    
Annual Summary for Watershed in year    2 of simulation

UNIT                                    PERCO    TILE                           WATER     SED     NO3     NO3     NO3     NO3        N       P       P
TIME     PREC    SURQ    LATQ     GWQ    LATE       Q     SW       ET     PET   YIELD   YIELD    SURQ    LATQ    PERC    CROP  ORGANIC SOLUBLE ORGANIC TILENO3
         (mm)    (mm)    (mm)    (mm)    (mm)    (mm)    (mm)    (mm)    (mm)    (mm)   (t/ha)  ------------------(kg nutrient/ha)-------------------- (kg/ha)
1
    SWAT Dec 23 2016    VER 2016/Rev 664                                            

    General Input/Output section (file.cio):                                        
    2023/9/29 0:00:00 ARCGIS-SWAT interface AV                                      
                                                                                    
Annual Summary for Watershed in year    3 of simulation

UNIT                                    PERCO    TILE                           WATER     SED     NO3     NO3     NO3     NO3        N       P       P
TIME     PREC    SURQ    LATQ     GWQ    LATE       Q     SW       ET     PET   YIELD   YIELD    SURQ    LATQ    PERC    CROP  ORGANIC SOLUBLE ORGANIC TILENO3
         (mm)    (mm)    (mm)    (mm)    (mm)    (mm)    (mm)    (mm)    (mm)    (mm)   (t/ha)  ------------------(kg nutrient/ha)-------------------- (kg/ha)
1
    SWAT Dec 23 2016    VER 2016/Rev 664                                            

    General Input/Output section (file.cio):                                        
    2023/9/29 0:00:00 ARCGIS-SWAT interface AV                                      
                                                                                    
Annual Summary for Watershed in year    4 of simulation

UNIT                                    PERCO    TILE                           WATER     SED     NO3     NO3     NO3     NO3        N       P       P
TIME     PREC    SURQ    LATQ     GWQ    LATE       Q     SW       ET     PET   YIELD   YIELD    SURQ    LATQ    PERC    CROP  ORGANIC SOLUBLE ORGANIC TILENO3
         (mm)    (mm)    (mm)    (mm)    (mm)    (mm)    (mm)    (mm)    (mm)    (mm)   (t/ha)  ------------------(kg nutrient/ha)-------------------- (kg/ha)
1
    SWAT Dec 23 2016    VER 2016/Rev 664                                            

    General Input/Output section (file.cio):                                        
    2023/9/29 0:00:00 ARCGIS-SWAT interface AV                                      
                                                                                    
Annual Summary for Watershed in year    5 of simulation

UNIT                                    PERCO    TILE                           WATER     SED     NO3     NO3     NO3     NO3        N       P       P
TIME     PREC    SURQ    LATQ     GWQ    LATE       Q     SW       ET     PET   YIELD   YIELD    SURQ    LATQ    PERC    CROP  ORGANIC SOLUBLE ORGANIC TILENO3
         (mm)    (mm)    (mm)    (mm)    (mm)    (mm)    (mm)    (mm)    (mm)    (mm)   (t/ha)  ------------------(kg nutrient/ha)-------------------- (kg/ha)
1
    SWAT Dec 23 2016    VER 2016/Rev 664                                            

    General Input/Output section (file.cio):                                        
    2023/9/29 0:00:00 ARCGIS-SWAT interface AV                                      
                                                                                    
Annual Summary for Watershed in year    6 of simulation

UNIT                                    PERCO    TILE                           WATER     SED     NO3     NO3     NO3     NO3        N       P       P
TIME     PREC    SURQ    LATQ     GWQ    LATE       Q     SW       ET     PET   YIELD   YIELD    SURQ    LATQ    PERC    CROP  ORGANIC SOLUBLE ORGANIC TILENO3
         (mm)    (mm)    (mm)    (mm)    (mm)    (mm)    (mm)    (mm)    (mm)    (mm)   (t/ha)  ------------------(kg nutrient/ha)-------------------- (kg/ha)
    1    1.82    0.00    0.16    0.00    0.00    0.00  117.26    0.00    0.00    8.94    0.00    0.00    0.00    0.00    0.00     0.00    0.00    0.00    0.00
    2    5.94    0.00    0.12    0.00    0.00    0.00  117.26    0.00    0.00    7.82    0.00    0.00    0.00    0.00    0.00     0.00    0.00    0.00    0.00
    3    7.46    0.15    0.11    0.00    0.00    0.00  118.82    0.00    0.00    8.44    0.00    0.00    0.00    0.00    0.00     0.00    0.00    0.00    0.00
    4   23.96   17.52    0.12    0.00   37.43    0.00  116.35    0.02    0.04   24.77    0.01    0.02    0.00    0.24    0.00     0.03    0.00    0.00    0.00
    5   76.09   37.12    0.22    0.00   55.19    0.00  114.91    1.74    2.65   43.22    0.04    0.03    0.00    0.49    1.04     0.09    0.01    0.01    0.00
    6   79.48   13.55    0.24    0.00   22.36    0.00  109.31   46.80   46.91   24.37    0.02    0.01    0.00    0.03    1.07     0.04    0.00    0.01    0.00
    7  154.29   32.94    0.22    0.00    6.35    0.00  110.13   89.83   89.93   33.74    0.03    0.06    0.00    0.00    0.97     0.05    0.00    0.01    0.00
    8  215.59   95.37    0.25    0.00   29.86    0.00  116.54   84.91   84.92  110.09    0.09    0.01    0.00    0.00    0.71     0.15    0.02    0.02    0.00
    9   34.35    2.40    0.23    0.00    4.22    0.00  111.49   54.94   54.96   14.94    0.00    0.00    0.00    0.00    0.47     0.00    0.00    0.00    0.00
   10   17.03    0.03    0.19    0.00    0.07    0.00  109.75   26.14   26.21    9.74    0.00    0.00    0.00    0.00    0.25     0.00    0.00    0.00    0.00
   11   39.02    0.56    0.16    0.00    0.00    0.00  110.46    5.78    5.78    9.76    0.00    0.00    0.00    0.00    0.03     0.00    0.00    0.00    0.00
   12    2.51    0.00    0.14    0.00    0.00    0.00  110.46    0.59    0.59    9.17    0.00    0.00    0.00    0.00    0.00     0.00    0.00    0.00    0.00

 2011  657.53  199.64    2.16    0.00  155.50    0.00  110.46  310.75  311.97  305.00    0.19    0.13    0.00    0.77    4.53     0.36    0.04    0.05    0.00
1
    SWAT Dec 23 2016    VER 2016/Rev 664                                            

    General Input/Output section (file.cio):                                        
    2023/9/29 0:00:00 ARCGIS-SWAT interface AV                                      
                                                                                    
Annual Summary for Watershed in year    7 of simulation

UNIT                                    PERCO    TILE                           WATER     SED     NO3     NO3     NO3     NO3        N       P       P
TIME     PREC    SURQ    LATQ     GWQ    LATE       Q     SW       ET     PET   YIELD   YIELD    SURQ    LATQ    PERC    CROP  ORGANIC SOLUBLE ORGANIC TILENO3
         (mm)    (mm)    (mm)    (mm)    (mm)    (mm)    (mm)    (mm)    (mm)    (mm)   (t/ha)  ------------------(kg nutrient/ha)-------------------- (kg/ha)
    1    2.06    0.00    0.11    0.00    0.00    0.00  110.46    0.00    0.00    8.72    0.00    0.00    0.00    0.00    0.00     0.00    0.00    0.00    0.00
    2    7.49    0.00    0.09    0.00    0.00    0.00  110.46    0.00    0.00    7.70    0.00    0.00    0.00    0.00    0.00     0.00    0.00    0.00    0.00
    3   26.54    0.35    0.08    0.00    0.00    0.00  112.20    0.00    0.00    8.08    0.00    0.00    0.00    0.00    0.00     0.00    0.00    0.00    0.00
    4   50.90   54.56    0.11    0.00   52.21    0.00  118.37    0.15    0.31   59.95    0.04    0.04    0.00    0.23    0.00     0.11    0.01    0.02    0.00
    5   98.16   53.66    0.21    0.00   42.95    0.00  116.22    3.31    4.37   50.65    0.06    0.02    0.00    0.17    1.26     0.14    0.01    0.02    0.00
    6  142.60   38.29    0.24    0.00   30.74    0.00  107.44   68.14   68.20   57.56    0.06    0.01    0.00    0.00    0.75     0.15    0.01    0.02    0.00
    7  130.75   22.99    0.24    0.00   13.42    0.00  112.43   93.73   93.73   32.59    0.02    0.04    0.00    0.00    0.98     0.05    0.00    0.01    0.00
    8  150.24   43.83    0.23    0.00   18.70    0.00  114.61   78.09   78.09   52.62    0.04    0.01    0.00    0.00    0.71     0.08    0.01    0.01    0.00
    9   96.96   23.11    0.22    0.00   17.45    0.00  113.96   45.88   45.88   32.41    0.03    0.00    0.00    0.00    0.45     0.04    0.00    0.01    0.00
   10   49.84   11.30    0.21    0.00   10.71    0.00  114.45   23.48   23.48   20.81    0.01    0.01    0.00    0.02    0.09     0.01    0.00    0.00    0.00
   11   57.84   22.35    0.19    0.00    2.08    0.00  122.39    0.51    0.51   32.08    0.02    0.00    0.00    0.00    0.00     0.03    0.00    0.00    0.00
   12   10.43    0.00    0.16    0.00    0.01    0.00  122.38    0.00    0.00    9.51    0.00    0.00    0.00    0.00    0.00     0.00    0.00    0.00    0.00

 2012  823.80  270.45    2.09    0.00  188.28    0.00  122.38  313.30  314.57  372.68    0.29    0.15    0.00    0.43    4.26     0.62    0.05    0.08    0.00
1
    SWAT Dec 23 2016    VER 2016/Rev 664                                            

    General Input/Output section (file.cio):                                        
    2023/9/29 0:00:00 ARCGIS-SWAT interface AV                                      
                                                                                    
Annual Summary for Watershed in year    8 of simulation

UNIT                                    PERCO    TILE                           WATER     SED     NO3     NO3     NO3     NO3        N       P       P
TIME     PREC    SURQ    LATQ     GWQ    LATE       Q     SW       ET     PET   YIELD   YIELD    SURQ    LATQ    PERC    CROP  ORGANIC SOLUBLE ORGANIC TILENO3
         (mm)    (mm)    (mm)    (mm)    (mm)    (mm)    (mm)    (mm)    (mm)    (mm)   (t/ha)  ------------------(kg nutrient/ha)-------------------- (kg/ha)
    1    6.00    0.00    0.13    0.00    0.00    0.00  122.38    0.00    0.00    9.19    0.00    0.00    0.00    0.00    0.00     0.00    0.00    0.00    0.00
    2   14.06    0.00    0.10    0.00    0.00    0.00  122.38    0.00    0.00    7.94    0.00    0.00    0.00    0.00    0.00     0.00    0.00    0.00    0.00
    3   24.11    2.09    0.10    0.00    0.01    0.00  128.51    0.00    0.00   10.41    0.00    0.00    0.00    0.00    0.00     0.01    0.00    0.00    0.00
    4   58.58   54.82    0.09    0.00   38.49    0.00  120.20    0.00    0.01   53.98    0.05    0.01    0.00    0.18    0.00     0.14    0.01    0.02    0.00
    5   83.67   92.98    0.23    0.00   72.10    0.00  114.90    2.60    4.15  109.40    0.11    0.05    0.00    0.32    0.83     0.32    0.02    0.04    0.00
    6   85.71   11.05    0.23    0.00    7.39    0.00   97.11   77.99   78.48   19.13    0.02    0.03    0.00    0.00    0.93     0.05    0.00    0.01    0.00
    7  293.72  131.56    0.25    0.00   42.55    0.00  116.01   82.68   82.68  138.83    0.13    0.11    0.00    0.00    0.95     0.32    0.02    0.04    0.00
    8  225.49  113.04    0.30    0.00   29.35    0.00  114.34   82.49   82.49  125.25    0.10    0.01    0.00    0.00    0.69     0.23    0.02    0.03    0.00
    9   43.88    1.80    0.28    0.00    5.23    0.00  113.09   55.54   55.55   12.30    0.00    0.00    0.00    0.00    0.52     0.00    0.00    0.00    0.00
   10   38.89    9.34    0.25    0.00    7.17    0.00  113.94   27.39   27.41   20.00    0.00    0.00    0.00    0.00    0.13     0.01    0.00    0.00    0.00
   11   65.39    5.07    0.21    0.00    5.02    0.00  113.43    4.83    4.83   15.57    0.01    0.00    0.00    0.01    0.00     0.01    0.00    0.00    0.00
   12    9.98    0.00    0.18    0.00    0.02    0.00  113.41    0.00    0.00   10.57    0.00    0.00    0.00    0.00    0.00     0.00    0.00    0.00    0.00

 2013  949.50  421.76    2.34    0.00  207.32    0.00  113.41  333.52  335.60  532.56    0.44    0.22    0.00    0.52    4.05     1.08    0.08    0.14    0.00
1
    SWAT Dec 23 2016    VER 2016/Rev 664                                            

    General Input/Output section (file.cio):                                        
    2023/9/29 0:00:00 ARCGIS-SWAT interface AV                                      
                                                                                    
Annual Summary for Watershed in year    9 of simulation

UNIT                                    PERCO    TILE                           WATER     SED     NO3     NO3     NO3     NO3        N       P       P
TIME     PREC    SURQ    LATQ     GWQ    LATE       Q     SW       ET     PET   YIELD   YIELD    SURQ    LATQ    PERC    CROP  ORGANIC SOLUBLE ORGANIC TILENO3
         (mm)    (mm)    (mm)    (mm)    (mm)    (mm)    (mm)    (mm)    (mm)    (mm)   (t/ha)  ------------------(kg nutrient/ha)-------------------- (kg/ha)
    1    6.88    0.00    0.15    0.00    0.00    0.00  113.45    0.00    0.00   10.21    0.00    0.00    0.00    0.00    0.00     0.00    0.00    0.00    0.00
    2    8.93    0.25    0.11    0.00    0.00    0.00  114.21    0.00    0.00    9.02    0.00    0.00    0.00    0.00    0.00     0.00    0.00    0.00    0.00
    3   25.44   25.81    0.11    0.00   16.38    0.00  118.17    0.00    0.00   33.00    0.02    0.01    0.00    0.07    0.00     0.06    0.00    0.01    0.00
    4   21.32   26.12    0.17    0.00   50.79    0.00  116.27    0.11    0.22   36.76    0.02    0.03    0.00    0.29    0.00     0.07    0.01    0.01    0.00
    5  120.12   60.08    0.25    0.00   56.66    0.00  116.33    2.55    2.90   68.33    0.12    0.03    0.00    0.41    1.17     0.32    0.01    0.04    0.00
    6  144.46   52.92    0.30    0.00   32.55    0.00  111.57   67.32   67.34   63.77    0.10    0.01    0.00    0.01    0.70     0.25    0.01    0.03    0.00
    7  104.05    7.43    0.28    0.00    5.30    0.00   95.94  104.22  104.73   18.47    0.01    0.03    0.00    0.00    0.91     0.01    0.00    0.00    0.00
    8   93.75    7.71    0.24    0.00    0.14    0.00   68.73   90.06   99.37   17.21    0.01    0.00    0.00    0.00    0.64     0.02    0.00    0.00    0.00
    9   41.12    7.50    0.20    0.00    3.34    0.00   69.26   59.39   60.17   19.65    0.01    0.00    0.00    0.00    0.38     0.02    0.00    0.00    0.00
   10   33.49    0.02    0.17    0.00    0.10    0.00   69.34   24.84   24.85   10.73    0.00    0.00    0.00    0.00    0.33     0.00    0.00    0.00    0.00
   11   14.51    0.00    0.14    0.00    0.00    0.00   69.34    7.13    7.13    9.97    0.00    0.00    0.00    0.00    0.00     0.00    0.00    0.00    0.00
   12   16.07    0.00    0.12    0.00    0.00    0.00   69.34    0.66    0.66    9.79    0.00    0.00    0.00    0.00    0.00     0.00    0.00    0.00    0.00

 2014  630.13  187.82    2.25    0.00  165.26    0.00   69.34  356.29  367.37  306.90    0.29    0.11    0.00    0.78    4.14     0.76    0.04    0.10    0.00
1
    SWAT Dec 23 2016    VER 2016/Rev 664                                            

    General Input/Output section (file.cio):                                        
    2023/9/29 0:00:00 ARCGIS-SWAT interface AV                                      
                                                                                    
Annual Summary for Watershed in year   10 of simulation

UNIT                                    PERCO    TILE                           WATER     SED     NO3     NO3     NO3     NO3        N       P       P
TIME     PREC    SURQ    LATQ     GWQ    LATE       Q     SW       ET     PET   YIELD   YIELD    SURQ    LATQ    PERC    CROP  ORGANIC SOLUBLE ORGANIC TILENO3
         (mm)    (mm)    (mm)    (mm)    (mm)    (mm)    (mm)    (mm)    (mm)    (mm)   (t/ha)  ------------------(kg nutrient/ha)-------------------- (kg/ha)
    1   10.83    0.00    0.10    0.00    0.00    0.00   69.34    0.00    0.00    9.22    0.00    0.00    0.00    0.00    0.00     0.00    0.00    0.00    0.00
    2   12.40    0.00    0.08    0.00    0.00    0.00   69.53    0.00    0.00    7.82    0.00    0.00    0.00    0.00    0.00     0.00    0.00    0.00    0.00
    3   30.31    9.41    0.08    0.00    0.35    0.00   81.97    0.00    0.00   15.52    0.01    0.01    0.00    0.00    0.00     0.02    0.00    0.00    0.00
    4   43.91   48.15    0.09    0.00   20.14    0.00  112.07    0.51    1.03   56.92    0.05    0.03    0.00    0.08    0.00     0.15    0.01    0.02    0.00
    5   56.20   21.17    0.17    0.00   28.19    0.00  114.02    3.65    4.23   29.08    0.04    0.02    0.00    0.18    1.33     0.10    0.00    0.01    0.00
    6  123.75   23.23    0.19    0.00   25.31    0.00  101.93   83.16   83.28   30.54    0.05    0.01    0.00    0.00    0.75     0.12    0.00    0.02    0.00
    7  192.31   55.54    0.19    0.00    9.58    0.00  111.97   97.85   98.04   57.97    0.06    0.08    0.00    0.00    0.87     0.13    0.01    0.02    0.00
    8  139.38   49.70    0.21    0.00   15.72    0.00  114.64   75.46   75.46   62.29    0.04    0.00    0.00    0.00    0.69     0.11    0.01    0.01    0.00
    9   21.07    2.17    0.18    0.04    3.98    0.00  101.96   56.97   57.52   10.20    0.00    0.00    0.00    0.00    0.39     0.00    0.00    0.00    0.00
   10   38.48    0.01    0.15    0.17    0.00    0.00  101.86   24.60   24.60    7.90    0.00    0.00    0.00    0.00    0.29     0.00    0.00    0.00    0.00
   11   63.92    0.76    0.12    0.33    0.15    0.00  103.30    4.18    4.18    8.33    0.00    0.00    0.00    0.00    0.00     0.00    0.00    0.00    0.00
   12   16.71    0.31    0.11    0.37    0.00    0.00  104.47    0.00    0.00    7.84    0.00    0.00    0.00    0.00    0.00     0.00    0.00    0.00    0.00

 2015  749.28  210.44    1.68    0.91  103.42    0.00  104.47  346.38  348.36  303.65    0.25    0.15    0.00    0.27    4.32     0.64    0.04    0.08    0.00
1
    SWAT Dec 23 2016    VER 2016/Rev 664                                            

    General Input/Output section (file.cio):                                        
    2023/9/29 0:00:00 ARCGIS-SWAT interface AV                                      
                                                                                    
    FINAL VALUES

1
    SWAT Dec 23 2016    VER 2016/Rev 664                                            

    General Input/Output section (file.cio):                                        
    2023/9/29 0:00:00 ARCGIS-SWAT interface AV                                      
                                                                                    
                                            Average Plant Values (kg/ha)

  HRU       1 SUB   1 FRST  Yld =   669.3 BIOM =   4237.1
  HRU       2 SUB   1 FRST  Yld =   670.6 BIOM =   4239.8
  HRU       3 SUB   1 FRST  Yld =  1145.6 BIOM =   6577.1
  HRU       4 SUB   1 FRST  Yld =  1144.7 BIOM =   6567.6
  HRU       5 SUB   2 FRST  Yld =   802.7 BIOM =   5648.9
  HRU       6 SUB   2 FRST  Yld =   798.5 BIOM =   5637.3
  HRU       7 SUB   3 FRST  Yld =   660.3 BIOM =   4110.5
  HRU       8 SUB   3 FRST  Yld =   660.1 BIOM =   4115.5
  HRU       9 SUB   4 FRST  Yld =   797.4 BIOM =   5619.9
  HRU      10 SUB   4 FRST  Yld =   801.6 BIOM =   5631.8
  HRU      11 SUB   5 FRST  Yld =   660.8 BIOM =   4135.8
  HRU      12 SUB   5 FRST  Yld =   661.6 BIOM =   4134.2
  HRU      13 SUB   6 FRST  Yld =   797.7 BIOM =   5548.7
  HRU      14 SUB   6 FRST  Yld =   793.6 BIOM =   5536.9
  HRU      15 SUB   7 FRST  Yld =   555.8 BIOM =   3945.5
  HRU      16 SUB   7 FRST  Yld =   614.5 BIOM =   3867.6
  HRU      17 SUB   8 FRST  Yld =   607.7 BIOM =   4775.8
  HRU      18 SUB   8 FRST  Yld =   617.0 BIOM =   4814.5
  HRU      19 SUB   8 FRST  Yld =   731.3 BIOM =   5139.7
  HRU      20 SUB   8 FRST  Yld =   725.1 BIOM =   5115.3
  HRU      21 SUB   9 FRST  Yld =   675.3 BIOM =   4501.3
  HRU      22 SUB   9 FRST  Yld =   680.5 BIOM =   4522.8
  HRU      23 SUB  10 FRST  Yld =  1278.1 BIOM =   7549.2
  HRU      24 SUB  10 FRST  Yld =  1280.2 BIOM =   7555.9
  HRU      25 SUB  11 FRST  Yld =   801.9 BIOM =   5629.3
  HRU      26 SUB  11 FRST  Yld =  1168.3 BIOM =   6734.3
  HRU      27 SUB  12 AGRL  Yld =  2358.8 BIOM =  12014.0
  HRU      28 SUB  12 AGRL  Yld =  2543.4 BIOM =  12680.1
  HRU      29 SUB  12 AGRL  Yld =  2538.4 BIOM =  12656.0
  HRU      30 SUB  12 AGRL  Yld =  2458.4 BIOM =  12456.9
  HRU      31 SUB  12 FRST  Yld =   752.6 BIOM =   5082.7
  HRU      32 SUB  12 FRST  Yld =   748.8 BIOM =   5071.3
  HRU      33 SUB  12 FRST  Yld =  1161.3 BIOM =   6690.1
  HRU      34 SUB  13 FRST  Yld =   652.1 BIOM =   3781.8
  HRU      35 SUB  13 FRST  Yld =   651.8 BIOM =   3763.3
  HRU      36 SUB  13 FRST  Yld =  1152.0 BIOM =   6624.4
  HRU      37 SUB  13 FRST  Yld =  1151.4 BIOM =   6618.1
  HRU      38 SUB  14 FRST  Yld =   735.7 BIOM =   4743.1
  HRU      39 SUB  14 FRST  Yld =   736.6 BIOM =   4737.4
  HRU      40 SUB  15 FRST  Yld =   615.9 BIOM =   4752.1
  HRU      41 SUB  15 FRST  Yld =   621.9 BIOM =   4777.3
  HRU      42 SUB  16 FRST  Yld =   681.1 BIOM =   4181.6
  HRU      43 SUB  16 FRST  Yld =   681.3 BIOM =   4168.3
  HRU      44 SUB  17 FRST  Yld =   736.7 BIOM =   4856.7
  HRU      45 SUB  18 FRST  Yld =   444.6 BIOM =   3296.4
  HRU      46 SUB  18 FRST  Yld =   441.4 BIOM =   3281.5
  HRU      47 SUB  18 FRST  Yld =   732.6 BIOM =   5144.9
  HRU      48 SUB  19 FRST  Yld =   512.4 BIOM =   3548.1
  HRU      49 SUB  19 FRST  Yld =   513.4 BIOM =   3550.0
  HRU      50 SUB  19 FRST  Yld =   597.0 BIOM =   3557.7
  HRU      51 SUB  19 FRST  Yld =   595.9 BIOM =   3554.6
  HRU      52 SUB  20 FRST  Yld =   737.2 BIOM =   4744.1
  HRU      53 SUB  20 FRST  Yld =   804.5 BIOM =   5660.0
  HRU      54 SUB  20 FRST  Yld =   807.2 BIOM =   5668.0
  HRU      55 SUB  21 FRST  Yld =   737.5 BIOM =   4744.4
  HRU      56 SUB  22 FRST  Yld =   695.2 BIOM =   4718.4
  HRU      57 SUB  22 FRST  Yld =   700.6 BIOM =   4741.1
  HRU      58 SUB  23 FRST  Yld =   759.5 BIOM =   5645.6
  HRU      59 SUB  23 BERM  Yld =  5037.0 BIOM =  11577.8
  HRU      60 SUB  24 FRST  Yld =   532.1 BIOM =   3790.3
  HRU      61 SUB  24 FRST  Yld =   535.5 BIOM =   3804.8
  HRU      62 SUB  24 FRST  Yld =   591.5 BIOM =   3549.0
  HRU      63 SUB  24 FRST  Yld =   594.3 BIOM =   3558.9
  HRU      64 SUB  25 FRST  Yld =   379.9 BIOM =   2269.8
  HRU      65 SUB  26 FRST  Yld =   536.8 BIOM =   3504.5
  HRU      66 SUB  26 FRST  Yld =   533.6 BIOM =   3489.4
  HRU      67 SUB  26 FRST  Yld =   706.0 BIOM =   5062.5
  HRU      68 SUB  27 FRST  Yld =   564.2 BIOM =   3740.8
  HRU      69 SUB  27 FRST  Yld =   562.4 BIOM =   3732.9
  HRU      70 SUB  27 FRST  Yld =   729.1 BIOM =   5348.4
  HRU      71 SUB  27 FRST  Yld =   733.2 BIOM =   5363.6
  HRU      72 SUB  28 FRST  Yld =   808.2 BIOM =   5673.6
  HRU      73 SUB  29 FRST  Yld =   561.3 BIOM =   3909.4
  HRU      74 SUB  29 FRST  Yld =   569.1 BIOM =   3937.6
  HRU      75 SUB  29 FRST  Yld =   744.0 BIOM =   5598.7
  HRU      76 SUB  29 FRST  Yld =   751.0 BIOM =   5622.3
  HRU      77 SUB  30 FRST  Yld =   699.4 BIOM =   5242.5
  HRU      78 SUB  30 FRST  Yld =   713.3 BIOM =   5293.9
  HRU      79 SUB  30 FRST  Yld =   720.3 BIOM =   5319.7
  HRU      80 SUB  31 FRST  Yld =   569.1 BIOM =   3766.1
  HRU      81 SUB  31 FRST  Yld =   729.4 BIOM =   5359.1
  HRU      82 SUB  31 FRST  Yld =   734.1 BIOM =   5377.2
  HRU      83 SUB  32 FRST  Yld =   568.9 BIOM =   3761.8
  HRU      84 SUB  32 FRST  Yld =   565.4 BIOM =   3747.9
  HRU      85 SUB  32 FRST  Yld =   729.8 BIOM =   5357.5
  HRU      86 SUB  33 FRST  Yld =   747.3 BIOM =   5613.2
  HRU      87 SUB  33 FRST  Yld =   753.8 BIOM =   5635.2
  HRU      88 SUB  34 FRST  Yld =   566.2 BIOM =   3750.6
  HRU      89 SUB  34 FRST  Yld =   569.2 BIOM =   3763.3
  HRU      90 SUB  34 FRST  Yld =   730.3 BIOM =   5359.4
  HRU      91 SUB  35 FRST  Yld =   568.4 BIOM =   3765.4
  HRU      92 SUB  35 FRST  Yld =   729.8 BIOM =   5364.4
  HRU      93 SUB  35 FRST  Yld =   735.0 BIOM =   5384.3
  HRU      94 SUB  36 FRST  Yld =   566.6 BIOM =   3753.7
  HRU      95 SUB  36 FRST  Yld =   569.2 BIOM =   3763.5
  HRU      96 SUB  36 FRST  Yld =   730.3 BIOM =   5359.4
  HRU      97 SUB  36 FRST  Yld =   735.0 BIOM =   5377.1
  HRU      98 SUB  37 FRST  Yld =   568.3 BIOM =   3765.1
  HRU      99 SUB  37 FRST  Yld =   564.7 BIOM =   3747.6
  HRU     100 SUB  37 FRST  Yld =   729.4 BIOM =   5361.4

    HRU STATISTICS

                AVE ANNUAL VALUES

   HRU  SUB  SOIL       AREAkm2    CN     AWCmm   USLE_LS  IRRmm  AUTONkh AUTOPkh  MIXEF PRECmm SURQGENmm   GWQmm    ETmm   SEDth  NO3kgh  ORGNkgh BIOMth   YLDth  SURQmm
      1   1   Haplic L   .943E+02   80.98  154.14    3.29    0.00    0.00    0.00    0.20  717.88   97.30    6.43  331.65    0.16    0.02    0.42    4.10    0.00   97.30
      2   1   Haplic L   .128E+03   80.98  154.14    1.30    0.00    0.00    0.00    0.20  717.88   97.34    3.60  331.65    0.05    0.01    0.16    4.11    0.00   97.34
      3   1   Haplic P   .583E+02   66.56  156.44    3.32    0.00    0.00    0.00    0.20  717.88   38.01   14.79  331.22    0.05    0.02    0.29    7.01    0.00   38.01
      4   1   Haplic P   .738E+02   66.56  156.44    1.34    0.00    0.00    0.00    0.20  717.88   38.01    8.43  331.22    0.01    0.02    0.09    7.01    0.00   38.02
      5   2   Haplic L   .447E+03   98.00  154.14    1.28    0.00    0.00    0.00    0.20  717.88  273.02    1.37  334.69    0.12    0.10    0.38    4.91    0.00  273.02
      6   2   Haplic L   .509E+03   98.00  154.14    3.58    0.00    0.00    0.00    0.20  717.88  273.07    2.60  334.69    0.32    0.10    0.90    4.89    0.00  273.07
      7   3   Haplic L   .654E+03   74.58  154.14    1.32    0.00    0.00    0.00    0.20  717.88   65.74    4.02  331.93    0.02    0.01    0.08    4.04    0.00   65.74
      8   3   Haplic L   .841E+03   74.58  154.14    3.52    0.00    0.00    0.00    0.20  717.88   65.68    7.42  331.93    0.05    0.01    0.19    4.04    0.00   65.68
      9   4   Haplic L   .472E+03   98.00  154.14    3.46    0.00    0.00    0.00    0.20  717.88  273.95    2.55  331.29    0.30    0.10    0.87    4.88    0.00  273.95
     10   4   Haplic L   .498E+03   98.00  154.14    1.28    0.00    0.00    0.00    0.20  717.88  273.89    1.37  331.29    0.11    0.10    0.36    4.91    0.00  273.89
     11   5   Haplic L   .209E+02   75.92  154.14    3.55    0.00    0.00    0.00    0.20  717.88   71.73    7.35  330.68    0.18    0.01    0.39    4.05    0.00   71.73
     12   5   Haplic L   .129E+02   75.92  154.14    1.34    0.00    0.00    0.00    0.20  717.88   71.79    4.00  330.68    0.07    0.01    0.15    4.05    0.00   71.79
     13   6   Haplic L   .253E+03   96.61  154.14    1.36    0.00    0.00    0.00    0.20  717.88  273.48    1.44  331.61    0.13    0.10    0.39    4.88    0.00  273.48
     14   6   Haplic L   .248E+03   96.61  154.14    3.41    0.00    0.00    0.00    0.20  717.88  273.53    2.55  331.61    0.33    0.10    0.90    4.86    0.00  273.53
     15   7   Dystric    .410E+02   83.65  116.16    1.10    0.00    0.00    0.00    0.20  767.60  134.93    0.92  331.38    0.09    0.02    0.29    3.40    0.00  134.93
     16   7   Haplic L   .169E+02   83.65   62.56    3.73    0.00    0.00    0.00    0.20  767.60  148.90    4.57  330.37    0.45    0.02    0.85    3.76    0.00  148.90
     17   8   Dystric    .146E+03   98.00  116.16    6.62    0.00    0.00    0.00    0.20  767.60  315.15    1.12  332.92    1.19    0.10    2.93    3.72    0.00  315.15
     18   8   Dystric    .213E+03   98.00  116.16    3.70    0.00    0.00    0.00    0.20  767.60  314.90    0.79  332.92    0.58    0.10    1.71    3.78    0.00  314.90
     19   8   Haplic L   .209E+03   98.00   62.56    1.32    0.00    0.00    0.00    0.20  767.60  313.69    0.97  332.10    0.21    0.09    0.53    4.48    0.00  313.69
     20   8   Haplic L   .249E+03   98.00   62.56    3.52    0.00    0.00    0.00    0.20  767.60  313.81    1.79  332.07    0.54    0.09    1.23    4.44    0.00  313.81
     21   9   Haplic L   .102E+03   92.97   62.56    3.55    0.00    0.00    0.00    0.20  767.60  247.53    2.85  331.14    0.66    0.05    1.26    4.13    0.00  247.53
     22   9   Haplic L   .886E+02   92.97   62.56    1.28    0.00    0.00    0.00    0.20  767.60  247.51    1.50  331.16    0.23    0.04    0.49    4.17    0.00  247.51
     23  10   Haplic P   .773E+01   94.95  156.44    1.09    0.00    0.00    0.00    0.20  717.88  236.07    3.20  328.91    0.07    0.13    0.42    7.82    0.00  236.07
     24  10   Haplic P   .666E+01   94.95  156.44    0.28    0.00    0.00    0.00    0.20  717.88  236.07    1.08  328.91    0.02    0.12    0.11    7.84    0.00  236.07
     25  11   Haplic L   .725E+01   98.00  154.14    1.04    0.00    0.00    0.00    0.20  717.88  275.04    1.20  330.14    0.14    0.10    0.31    4.91    0.00  275.04
     26  11   Haplic P   .134E+02   80.67  156.44    1.19    0.00    0.00    0.00    0.20  717.88   94.24    6.64  329.69    0.03    0.03    0.19    7.15    0.00   94.24
     27  12   Dystric    .260E+02   98.00   67.08    1.16    0.00  103.97    0.00    0.20  717.88  313.29    5.31  320.58   19.49   22.13   26.33    0.00    0.00  313.29
     28  12   Haplic L   .777E+01   98.00  154.14    3.23    0.00  107.77    0.00    0.20  717.88  311.94    2.16  331.56   66.86   22.76   35.56    0.00    0.00  311.94
     29  12   Haplic L   .132E+02   98.00  154.14    1.38    0.00  100.95    0.00    0.20  717.88  311.98    1.27  331.58   29.46   17.48   28.60    0.00    0.00  311.98
     30  12   Haplic P   .252E+02   98.00  156.44    1.12    0.00   95.70    0.00    0.20  717.88  312.04    2.19  329.71   19.87   19.18   43.52    0.00    0.00  312.04
     31  12   Haplic L   .381E+02   94.75  154.14    1.38    0.00    0.00    0.00    0.20  717.88  234.97    1.94  332.08    0.19    0.06    0.44    4.61    0.00  234.97
     32  12   Haplic L   .319E+02   94.75  154.14    3.38    0.00    0.00    0.00    0.20  717.88  234.99    3.39  332.08    0.49    0.07    0.97    4.58    0.00  234.99
     33  12   Haplic P   .418E+02   77.88  156.44    1.17    0.00    0.00    0.00    0.20  717.88   79.26    6.87  331.62    0.03    0.03    0.18    7.11    0.00   79.26
     34  13   Dystric    .531E+02   88.10   67.08    0.97    0.00    0.00    0.00    0.20  717.88  150.76   10.24  329.09    0.07    0.03    0.20    3.99    0.00  150.76
     35  13   Dystric    .881E+02   88.10   67.08    0.23    0.00    0.00    0.00    0.20  717.88  150.84    3.16  329.09    0.01    0.02    0.05    3.99    0.00  150.84
     36  13   Haplic P   .606E+02   72.41  156.44    1.12    0.00    0.00    0.00    0.20  717.88   56.03    7.14  331.97    0.02    0.02    0.13    7.05    0.00   56.03
     37  13   Haplic P   .667E+02   72.41  156.44    0.22    0.00    0.00    0.00    0.20  717.88   56.09    1.90  331.97    0.00    0.01    0.03    7.05    0.00   56.09
     38  14   Dystric    .397E+02   98.00   67.08    1.00    0.00    0.00    0.00    0.20  717.88  276.30    4.99  326.90    0.11    0.09    0.32    4.50    0.00  276.30
     39  14   Dystric    .699E+02   98.00   67.08    0.27    0.00    0.00    0.00    0.20  717.88  276.31    1.74  326.90    0.02    0.08    0.08    4.51    0.00  276.31
     40  15   Dystric    .102E+04   98.00  116.16    6.77    0.00    0.00    0.00    0.20  717.88  276.11    1.06  330.58    0.49    0.10    1.82    3.77    0.00  276.11
     41  15   Dystric    .129E+04   98.00  116.16    3.67    0.00    0.00    0.00    0.20  717.88  275.99    0.73  330.59    0.23    0.10    0.95    3.81    0.00  275.99
     42  16   Dystric    .260E+03   93.07   67.08    0.84    0.00    0.00    0.00    0.20  717.88  208.10    7.03  330.09    0.06    0.05    0.23    4.17    0.00  208.10
     43  16   Dystric    .346E+03   93.07   67.08    0.29    0.00    0.00    0.00    0.20  717.88  208.15    2.93  330.10    0.02    0.04    0.08    4.17    0.00  208.15
     44  17   Haplic L   .383E+03   93.20  154.14    0.24    0.00    0.00    0.00    0.20  717.88  206.99    0.56  339.42    0.01    0.05    0.05    4.51    0.00  206.99
     45  18   Dystric    .494E+02   98.00   58.49    0.29    0.00    0.00    0.00    0.20  767.60  321.04    0.08  330.70    0.10    0.07    0.29    2.72    0.00  321.04
     46  18   Dystric    .261E+02   98.00   58.49    0.84    0.00    0.00    0.00    0.20  767.60  321.17    0.19  330.68    0.35    0.07    0.80    2.70    0.00  321.17
     47  18   Haplic L   .101E+03   98.00   62.56    1.17    0.00    0.00    0.00    0.20  767.60  313.80    0.89  331.87    0.16    0.09    0.42    4.49    0.00  313.80
     48  19   Dystric    .146E+03   73.46  142.53    0.92    0.00    0.00    0.00    0.20  767.60   82.04    1.01  334.19    0.07    0.01    0.20    3.14    0.00   82.04
     49  19   Dystric    .336E+03   73.46  142.53    0.25    0.00    0.00    0.00    0.20  767.60   82.06    0.34  334.19    0.01    0.01    0.05    3.14    0.00   82.06
     50  19   Haplic L   .204E+03   73.46   62.56    0.27    0.00    0.00    0.00    0.20  767.60   85.12    5.10  332.98    0.02    0.01    0.04    3.66    0.00   85.12
     51  19   Haplic L   .273E+03   73.46   62.56    1.12    0.00    0.00    0.00    0.20  767.60   85.06    5.61  332.97    0.06    0.01    0.17    3.65    0.00   85.06
     52  20   Dystric    .316E+03   98.00   67.08    0.26    0.00    0.00    0.00    0.20  717.88  273.71    1.66  332.52    0.02    0.08    0.07    4.51    0.00  273.71
     53  20   Haplic L   .103E+03   98.00  154.14    0.89    0.00    0.00    0.00    0.20  717.88  272.16    1.06  336.34    0.11    0.10    0.30    4.93    0.00  272.16
     54  20   Haplic L   .134E+03   98.00  154.14    0.28    0.00    0.00    0.00    0.20  717.88  272.13    0.41  336.34    0.03    0.10    0.09    4.94    0.00  272.13
     55  21   Dystric    .668E+03   98.00   67.08    0.21    0.00    0.00    0.00    0.20  717.88  273.59    1.32  332.78    0.01    0.08    0.05    4.52    0.00  273.59
     56  22   Haplic L   .139E+03   94.43   62.56    3.64    0.00    0.00    0.00    0.20  767.60  270.76    2.51  331.70    0.54    0.06    1.18    4.26    0.00  270.76
     57  22   Haplic L   .967E+02   94.43   62.56    1.32    0.00    0.00    0.00    0.20  767.60  270.72    1.33  331.72    0.22    0.06    0.50    4.29    0.00  270.72
     58  23   Haplic L   .124E+01   98.00  113.00    1.25    0.00    0.00    0.00    0.20  767.60  313.30    1.89  331.74    0.18    0.11    0.37    4.65    0.00  313.30
     59  23   Haplic L   .517E+00   98.00  113.00    0.14    0.00   99.52    0.00    0.20  767.60  337.56    0.25  336.69    0.06   15.18    0.15    1.06    0.00  337.56
     60  24   Dystric    .140E+03   74.11  116.16    6.96    0.00    0.00    0.00    0.20  767.60   71.70   10.13  334.50    0.40    0.01    1.10    3.26    0.00   71.70
     61  24   Dystric    .107E+03   74.11  116.16    3.76    0.00    0.00    0.00    0.20  767.60   71.70    9.83  334.51    0.23    0.01    0.65    3.28    0.00   71.70
     62  24   Haplic L   .928E+02   74.11   62.56    6.77    0.00    0.00    0.00    0.20  767.60   88.27    7.90  333.35    0.56    0.01    1.10    3.62    0.00   88.27
     63  24   Haplic L   .124E+03   74.11   62.56    3.67    0.00    0.00    0.00    0.20  767.60   88.34    5.47  333.36    0.28    0.01    0.63    3.64    0.00   88.34
     64  25   Dystric    .412E+03   80.88   58.49    1.21    0.00    0.00    0.00    0.20  767.60  130.45    0.65  333.89    0.12    0.01    0.46    2.33    0.00  130.45
     65  26   Dystric    .205E+03   95.03   74.00    0.28    0.00    0.00    0.00    0.20  878.00  371.59    0.55  324.40    0.05    0.07    0.20    3.29    0.00  371.59
     66  26   Dystric    .786E+02   95.03   74.00    0.76    0.00    0.00    0.00    0.20  878.00  371.63    1.27  324.39    0.22    0.07    0.64    3.27    0.00  371.63
     67  26   Haplic L   .297E+03   95.03  113.00    1.07    0.00    0.00    0.00    0.20  878.00  361.21    2.61  327.41    0.12    0.09    0.39    4.32    0.00  361.21
     68  27   Dystric    .168E+03   96.95   74.00    0.29    0.00    0.00    0.00    0.20  878.00  405.84    0.45  326.59    0.05    0.09    0.21    3.45    0.00  405.84
     69  27   Dystric    .107E+03   96.95   74.00    0.80    0.00    0.00    0.00    0.20  878.00  405.80    1.06  326.58    0.19    0.09    0.62    3.44    0.00  405.80
     70  27   Haplic L   .666E+02   96.95  113.00    0.92    0.00    0.00    0.00    0.20  878.00  401.46    1.81  330.16    0.19    0.13    0.46    4.46    0.00  401.46
     71  27   Haplic L   .429E+02   96.95  113.00    0.30    0.00    0.00    0.00    0.20  878.00  401.37    0.75  330.18    0.07    0.13    0.17    4.49    0.00  401.37
     72  28   Haplic L   .133E+04   98.00  154.14    0.23    0.00    0.00    0.00    0.20  717.88  271.89    0.34  336.87    0.01    0.10    0.05    4.95    0.00  271.89
     73  29   Dystric    .559E+02   98.00   32.00   12.95    0.00    0.00    0.00    0.20  767.60  315.16    3.17  331.11    2.35    0.08    5.62    3.44    0.00  315.16
     74  29   Dystric    .471E+02   98.00   32.00    7.04    0.00    0.00    0.00    0.20  767.60  314.97    2.18  331.21    1.32    0.08    3.43    3.48    0.00  314.97
     75  29   Haplic L   .425E+02   98.00  113.00    6.96    0.00    0.00    0.00    0.20  767.60  311.50    5.35  335.82    1.07    0.11    2.04    4.56    0.00  311.50
     76  29   Haplic L   .468E+02   98.00  113.00    3.67    0.00    0.00    0.00    0.20  767.60  311.38    3.66  335.81    0.53    0.11    1.14    4.60    0.00  311.38
     77  30   Haplic L   .760E+01   98.00  113.00   14.05    0.00    0.00    0.00    0.20  878.00  405.02    9.74  326.58    3.60    0.13    5.28    4.28    0.00  405.02
     78  30   Haplic L   .735E+01   98.00  113.00    6.85    0.00    0.00    0.00    0.20  878.00  404.69    6.32  326.66    1.69    0.13    2.78    4.37    0.00  404.69
     79  30   Haplic L   .824E+01   98.00  113.00    3.61    0.00    0.00    0.00    0.20  878.00  404.53    4.33  326.70    0.88    0.13    1.56    4.41    0.00  404.53
     80  31   Dystric    .674E+03   98.00   74.00    0.26    0.00    0.00    0.00    0.20  878.00  406.34    0.41  327.75    0.05    0.09    0.20    3.48    0.00  406.34
     81  31   Haplic L   .162E+03   98.00  113.00    0.91    0.00    0.00    0.00    0.20  878.00  401.73    1.78  331.55    0.25    0.13    0.55    4.47    0.00  401.73
     82  31   Haplic L   .147E+03   98.00  113.00    0.28    0.00    0.00    0.00    0.20  878.00  401.62    0.68  331.57    0.07    0.13    0.18    4.49    0.00  401.62
     83  32   Dystric    .144E+03   98.00   74.00    0.28    0.00    0.00    0.00    0.20  878.00  407.60    0.44  325.37    0.07    0.09    0.23    3.48    0.00  407.60
     84  32   Dystric    .618E+02   98.00   74.00    0.80    0.00    0.00    0.00    0.20  878.00  407.70    1.05  325.35    0.27    0.09    0.72    3.46    0.00  407.70
     85  32   Haplic L   .258E+03   98.00  113.00    1.10    0.00    0.00    0.00    0.20  878.00  403.03    2.05  329.08    0.14    0.13    0.46    4.47    0.00  403.03
     86  33   Haplic L   .285E+03   98.00  113.00    6.85    0.00    0.00    0.00    0.20  767.60  311.02    5.26  336.47    0.66    0.11    1.73    4.58    0.00  311.02
     87  33   Haplic L   .317E+03   98.00  113.00    3.70    0.00    0.00    0.00    0.20  767.60  310.90    3.66  336.46    0.33    0.11    0.96    4.62    0.00  310.90
     88  34   Dystric    .806E+02   98.00   74.00    0.88    0.00    0.00    0.00    0.20  878.00  407.89    1.12  325.01    0.22    0.09    0.67    3.47    0.00  407.89
     89  34   Dystric    .137E+03   98.00   74.00    0.27    0.00    0.00    0.00    0.20  878.00  407.78    0.42  325.03    0.05    0.09    0.20    3.49    0.00  407.78
     90  34   Haplic L   .209E+03   98.00  113.00    1.09    0.00    0.00    0.00    0.20  878.00  403.21    2.03  328.72    0.13    0.13    0.42    4.47    0.00  403.21
     91  35   Dystric    .230E+03   98.00   74.00    0.25    0.00    0.00    0.00    0.20  878.00  404.15    0.39  332.12    0.07    0.09    0.23    3.48    0.00  404.15
     92  35   Haplic L   .106E+03   98.00  113.00    0.95    0.00    0.00    0.00    0.20  878.00  399.39    1.84  336.08    0.26    0.13    0.56    4.47    0.00  399.39
     93  35   Haplic L   .164E+03   98.00  113.00    0.26    0.00    0.00    0.00    0.20  878.00  399.27    0.63  336.11    0.06    0.13    0.16    4.50    0.00  399.27
     94  36   Dystric    .128E+01   98.00   74.00    0.80    0.00    0.00    0.00    0.20  878.00  407.55    1.05  325.55    0.23    0.09    0.55    3.47    0.00  407.55
     95  36   Dystric    .218E+01   98.00   74.00    0.28    0.00    0.00    0.00    0.20  878.00  407.48    0.44  325.56    0.08    0.09    0.21    3.49    0.00  407.48
     96  36   Haplic L   .196E+01   98.00  113.00    1.07    0.00    0.00    0.00    0.20  878.00  402.90    2.00  329.28    0.20    0.13    0.42    4.47    0.00  402.90
     97  36   Haplic L   .265E+01   98.00  113.00    0.25    0.00    0.00    0.00    0.20  878.00  402.80    0.61  329.30    0.05    0.13    0.11    4.50    0.00  402.80
     98  37   Dystric    .183E+03   98.00   74.00    0.29    0.00    0.00    0.00    0.20  878.00  405.06    0.45  330.26    0.09    0.09    0.27    3.48    0.00  405.06
     99  37   Dystric    .159E+03   98.00   74.00    0.94    0.00    0.00    0.00    0.20  878.00  405.18    1.17  330.24    0.31    0.09    0.85    3.46    0.00  405.18
    100  37   Haplic L   .188E+03   98.00  113.00    1.02    0.00    0.00    0.00    0.20  878.00  400.35    1.92  334.15    0.24    0.13    0.58    4.47    0.00  400.36



                AVE MONTHLY BASIN VALUES
                   SNOW                      WATER               SED
  MON     RAIN     FALL   SURF Q    LAT Q    YIELD       ET    YIELD      PET
          (MM)     (MM)     (MM)     (MM)     (MM)     (MM)   (T/HA)     (MM)
    1     5.52    14.47     0.00     0.13     9.26     0.00     0.00     0.00
    2     9.69     9.46     0.05     0.10     8.00     0.00     0.00     0.00
    3    22.77    15.70     7.56     0.10    15.09     0.00     0.01     0.00
    4    39.73     7.20    40.23     0.12    46.48     0.16     0.04     0.32
    5    86.85     0.00    53.00     0.21    60.14     2.77     0.07     3.66
    6   115.20     0.00    27.81     0.24    39.07    68.68     0.05    68.84
    7   175.02     0.00    50.09     0.24    56.32    93.66     0.05    93.82
    8   164.89     0.00    61.93     0.25    73.49    82.20     0.06    84.07
    9    47.48     0.00     7.40     0.22    17.90    54.54     0.01    54.82
   10    35.54     0.62     4.14     0.20    13.84    25.29     0.00    25.31
   11    48.14    19.65     5.75     0.16    15.14     4.49     0.01     4.49
   12    11.14    32.89     0.06     0.14     9.38     0.25     0.00     0.25

     AVE ANNUAL BASIN STRESS DAYS
               WATER STRESS DAYS =     0.77
               TEMPERATURE STRESS DAYS =   124.45
               NITROGEN STRESS DAYS =    79.51
               PHOSPHORUS STRESS DAYS =     0.17
               AERATION STRESS DAYS =     0.00
1
    SWAT Dec 23 2016    VER 2016/Rev 664                                            

    General Input/Output section (file.cio):                                        
    2023/9/29 0:00:00 ARCGIS-SWAT interface AV                                      
                                                                                    
         AVE ANNUAL BASIN VALUES

              PRECIP =    762.0 MM
              SNOW FALL =  100.06 MM
              SNOW MELT =    90.28 MM
              SUBLIMATION =     1.22 MM
              SURFACE RUNOFF Q =   258.02 MM
              LATERAL SOIL Q =    2.10 MM
              TILE Q =     0.00 MM
              GROUNDWATER (SHAL AQ) Q =     0.18 MM
              GROUNDWATER (DEEP AQ) Q =   103.85 MM
              REVAP (SHAL AQ => SOIL/PLANTS) =    6.71 MM
              DEEP AQ RECHARGE =   102.57 MM
              TOTAL AQ RECHARGE =  174.73 MM
              TOTAL WATER YLD =   364.16 MM
              PERCOLATION OUT OF SOIL =  163.96 MM
              ET =    332.0 MM
              PET =    335.6MM
              TRANSMISSION LOSSES =     0.00 MM
              SEPTIC INFLOW =       0.00 MM
              TOTAL SEDIMENT LOADING =      0.29 T/HA
              TILE FROM IMPOUNDED WATER =     0.000 (MM)
              EVAPORATION FROM IMPOUNDED WATER =     0.000 (MM)
              SEEPAGE INTO SOIL FROM IMPOUNDED WATER =    0.000 (MM)
              OVERFLOW FROM IMPOUNDED WATER =    0.000 (MM)
1
    SWAT Dec 23 2016    VER 2016/Rev 664                                            

    General Input/Output section (file.cio):                                        
    2023/9/29 0:00:00 ARCGIS-SWAT interface AV                                      
                                                                                    
              AVE ANNUAL BASIN VALUES


              NUTRIENTS
                   ORGANIC N =     0.694 (KG/HA)
                   ORGANIC P =     0.092 (KG/HA)
                   NO3 YIELD (SQ) =     0.152 (KG/HA)
                   NO3 YIELD (LAT) =    0.003 (KG/HA)
                   NO3 YIELD (TILE) =    0.000 (KG/HA)
                   SOLP YIELD (TILE) =    0.000(KG/HA)
                   SOLP YIELD (SURF INLET RISER) =    0.000 (KG/HA)
                   SOL P YIELD =    0.049 (KG/HA)
                   NO3 LEACHED =     0.553 (KG/HA)
                   P LEACHED =     0.066 (KG/HA)
                   N UPTAKE =     4.261 (KG/HA)
                   P UPTAKE =    1.087 (KG/HA)
                   NO3 YIELD (GWQ) =     0.000 (KG/HA)
                   ACTIVE TO SOLUTION P FLOW =        -0.405 (KG/HA)
                   ACTIVE TO STABLE P FLOW =        -0.335 (KG/HA)
                   N FERTILIZER APPLIED =     0.391 (KG/HA)
                   P FERTILIZER APPLIED =     0.000 (KG/HA)
                   N FIXATION =     0.000 (KG/HA)
                   DENITRIFICATION =     0.105 (KG/HA)
                   HUMUS MIN ON ACTIVE ORG N =     2.589 (KG/HA)
                   ACTIVE TO STABLE ORG N =    -1.126 (KG/HA)
                   HUMUS MIN ON ACTIVE ORG P =    0.444 (KG/HA)
                   MIN FROM FRESH ORG N =    2.527 (KG/HA)
                   MIN FROM FRESH ORG P =    0.490 (KG/HA)
                   NO3 IN RAINFALL =     0.000 (KG/HA)
                   INITIAL NO3 IN SOIL =      55.326 (KG/HA)
                   FINAL NO3 IN SOIL =         0.370 (KG/HA)
                   INITIAL ORG N IN SOIL =    5920.259 (KG/HA)
                   FINAL ORG N IN SOIL =      5856.308 (KG/HA)
                   INITIAL MIN P IN SOIL =    2351.517 (KG/HA)
                   FINAL MIN P IN SOIL =      2332.851 (KG/HA)
                   INITIAL ORG P IN SOIL =     725.232 (KG/HA)
                   FINAL ORG P IN SOIL =     716.687 (KG/HA)
                   NO3 IN FERT =     0.391 (KG/HA)
                   AMMONIA IN FERT =     0.000 (KG/HA)
                   ORG N IN FERT =     0.000 (KG/HA)
                   MINERAL P IN FERT =     0.000 (KG/HA)
                   ORG P IN FERT =     0.000 (KG/HA)
                   N REMOVED IN YIELD =     1.701 (KG/HA)
                   P REMOVED IN YIELD =     0.591 (KG/HA)
                   AMMONIA VOLATILIZATION =     0.000 (KG/HA)
                   AMMONIA NITRIFICATION =      0.000 (KG/HA)
                   NO3 EVAP-LAYER 2 TO 1 =    0.005

                   DIE-GRO P Q =           0.0 (No/M2)
                   DIE-GRO LP Q =           0.0 (No/M2)
                   DIE-GRO P SED =          0.0 (No/M2)
                   DIE-GRO LP SED =          0.0 (No/M2)
                   BACT P RUNOFF =          0.0 (No/M2)
                   BACT LP RUNOFF =          0.0 (No/M2)
                   BACT P SEDIMENT =          0.0 (No/M2)
                   BACT LP SEDIMENT =          0.0 (No/M2)
                   BACT P INCORP =          0.0 (No/M2)
                   BACT LP INCORP =          0.0 (No/M2)

                   NITRATE SEPTIC =         0.00 (kg/ha)
                   AMMONIA SEPTIC =         0.00 (kg/ha)
                   ORG N SEPTIC =         0.00 (kg/ha)
                   FRESH ORGN SEPTIC =         0.00 (kg/ha)
                   ORG P SEPTIC =         0.00 (kg/ha)
                   FRESH ORGP SEPTIC =         0.00 (kg/ha)
                   SOL P SEPTIC =         0.00 (kg/ha)
                   BOD SEPTIC =         0.00 (kg/ha)
