1
    SWAT Dec 23 2016    VER 2016/Rev 664                                                                 0/ 0/   0      0: 0: 0

    General Input/Output section (file.cio):                                        
    2023/9/29 0:00:00 ARCGIS-SWAT interface AV                                      
                                                                                    


       SUB      GIS  MON   AREAkm2  PRECIPmm SNOMELTmm     PETmm      ETmm      SWmm    PERCmm    SURQmm    GW_Qmm    WYLDmm  SYLDt/ha ORGNkg/ha ORGPkg/haNSURQkg/ha SOLPkg/ha SEDPkg/ha LAT Q(mm)LATNO3kg/hGWNO3kg/haCHOLAmic/LCBODU mg/L DOXQ mg/L TNO3kg/ha   QTILEmm TVAPkg/ha
BIGSUB   1        0    1.35854E+03     0.693     0.000     0.000     0.000   158.886     0.000     0.000     0.000    16.829     0.000     0.000     0.000     0.000     0.000     0.000     0.548     0.000     0.000 .00000E+00 0.000E+00 0.000E+00 0.000E+00 0.000E+00 0.000E+00
BIGSUB   2        0    1.95872E+03     0.698     0.000     0.000     0.000   157.114     0.000     0.000     0.000     4.960     0.000     0.000     0.000     0.000     0.000     0.000     0.138     0.000     0.000 .00000E+00 0.000E+00 0.000E+00 0.000E+00 0.000E+00 0.000E+00
BIGSUB   3        0    1.14997E+04     0.698     0.000     0.000     0.000   158.264     0.000     0.000     0.000    17.370     0.000     0.000     0.000     0.000     0.000     0.000     0.502     0.000     0.000 .00000E+00 0.000E+00 0.000E+00 0.000E+00 0.000E+00 0.000E+00
BIGSUB   4        0    1.96287E+03     0.705     0.000     0.000     0.000   157.594     0.000     0.000     0.000     5.036     0.000     0.000     0.000     0.000     0.000     0.000     0.134     0.000     0.000 .00000E+00 0.000E+00 0.000E+00 0.000E+00 0.000E+00 0.000E+00
BIGSUB   5        0    1.33421E+02     0.709     0.000     0.000     0.000   157.845     0.000     0.000     0.000    16.953     0.000     0.000     0.000     0.000     0.000     0.000     0.506     0.000     0.000 .00000E+00 0.000E+00 0.000E+00 0.000E+00 0.000E+00 0.000E+00
BIGSUB   6        0    1.49426E+03     0.709     0.000     0.000     0.000   157.288     0.000     0.000     0.000     5.040     0.000     0.000     0.000     0.000     0.000     0.000     0.135     0.000     0.000 .00000E+00 0.000E+00 0.000E+00 0.000E+00 0.000E+00 0.000E+00
BIGSUB   7        0    1.59737E+02     3.969     0.000     0.000     0.000   106.292     0.000     0.000     0.000    17.077     0.000     0.000     0.000     0.000     0.000     0.000     0.179     0.000     0.000 .00000E+00 0.000E+00 0.000E+00 0.000E+00 0.000E+00 0.000E+00
BIGSUB   8        0    1.81851E+03     4.089     0.000     0.000     0.000    92.193     0.000     0.000     0.000     5.016     0.000     0.000     0.000     0.000     0.000     0.000     0.088     0.000     0.000 .00000E+00 0.000E+00 0.000E+00 0.000E+00 0.000E+00 0.000E+00
BIGSUB   9        0    1.19056E+03     4.092     0.000     0.000     0.000    68.461     0.000     0.000     0.000     9.584     0.000     0.000     0.000     0.000     0.000     0.000     0.188     0.000     0.000 .00000E+00 0.000E+00 0.000E+00 0.000E+00 0.000E+00 0.000E+00
BIGSUB  10        0    1.14199E+02     0.709     0.000     0.000     0.000   159.687     0.000     0.000     0.000     6.995     0.000     0.000     0.000     0.000     0.000     0.000     0.118     0.000     0.000 .00000E+00 0.000E+00 0.000E+00 0.000E+00 0.000E+00 0.000E+00
BIGSUB  11        0    1.20388E+02     0.709     0.000     0.000     0.000   158.846     0.000     0.000     0.000    11.817     0.000     0.000     0.000     0.000     0.000     0.000     0.310     0.000     0.000 .00000E+00 0.000E+00 0.000E+00 0.000E+00 0.000E+00 0.000E+00
BIGSUB  12        0    1.18155E+03     0.709     0.000     0.000     0.000   146.666     0.000     0.000     0.000     7.346     0.000     0.000     0.000     0.000     0.000     0.000     0.244     0.002     0.000 .00000E+00 0.000E+00 0.000E+00 0.000E+00 0.000E+00 0.000E+00
BIGSUB  13        0    1.26490E+03     0.709     0.000     0.000     0.000   112.814     0.000     0.000     0.000    14.700     0.000     0.000     0.000     0.000     0.000     0.000     0.331     0.000     0.000 .00000E+00 0.000E+00 0.000E+00 0.000E+00 0.000E+00 0.000E+00
BIGSUB  14        0    1.10820E+03     0.709     0.000     0.000     0.000    70.257     0.000     0.000     0.000     4.603     0.000     0.000     0.000     0.000     0.000     0.000     0.151     0.000     0.000 .00000E+00 0.000E+00 0.000E+00 0.000E+00 0.000E+00 0.000E+00
BIGSUB  15        0    1.22873E+04     0.706     0.000     0.000     0.000   119.296     0.000     0.000     0.000     4.898     0.000     0.000     0.000     0.000     0.000     0.000     0.052     0.000     0.000 .00000E+00 0.000E+00 0.000E+00 0.000E+00 0.000E+00 0.000E+00
BIGSUB  16        0    1.59806E+03     0.709     0.000     0.000     0.000    70.041     0.000     0.000     0.000     8.133     0.000     0.000     0.000     0.000     0.000     0.000     0.268     0.000     0.000 .00000E+00 0.000E+00 0.000E+00 0.000E+00 0.000E+00 0.000E+00
BIGSUB  17        0    1.39043E+03     0.686     0.000     0.000     0.000   156.526     0.000     0.000     0.000     7.885     0.000     0.000     0.000     0.000     0.000     0.000     0.040     0.000     0.000 .00000E+00 0.000E+00 0.000E+00 0.000E+00 0.000E+00 0.000E+00
BIGSUB  18        0    1.17456E+03     4.155     0.000     0.000     0.000    66.685     0.000     0.000     0.000     5.029     0.000     0.000     0.000     0.000     0.000     0.000     0.043     0.000     0.000 .00000E+00 0.000E+00 0.000E+00 0.000E+00 0.000E+00 0.000E+00
BIGSUB  19        0    1.95467E+03     4.119     0.000     0.000     0.000   110.324     0.000     0.000     0.000    21.286     0.000     0.000     0.000     0.000     0.000     0.000     0.114     0.000     0.000 .00000E+00 0.000E+00 0.000E+00 0.000E+00 0.000E+00 0.000E+00
BIGSUB  20        0    1.54572E+03     0.709     0.000     0.000     0.000   107.121     0.000     0.000     0.000     4.627     0.000     0.000     0.000     0.000     0.000     0.000     0.069     0.000     0.000 .00000E+00 0.000E+00 0.000E+00 0.000E+00 0.000E+00 0.000E+00
BIGSUB  21        0    1.67377E+03     0.694     0.000     0.000     0.000    69.731     0.000     0.000     0.000     4.413     0.000     0.000     0.000     0.000     0.000     0.000     0.068     0.000     0.000 .00000E+00 0.000E+00 0.000E+00 0.000E+00 0.000E+00 0.000E+00
BIGSUB  22        0    1.23228E+03     4.155     0.000     0.000     0.000    68.553     0.000     0.000     0.000     8.027     0.000     0.000     0.000     0.000     0.000     0.000     0.168     0.000     0.000 .00000E+00 0.000E+00 0.000E+00 0.000E+00 0.000E+00 0.000E+00
BIGSUB  23        0    1.17334E+01     4.155     0.000     0.000     0.000   119.627     0.000     0.000     0.000     4.443     0.000     0.000     0.000     0.000     0.000     0.000     0.099     0.000     0.000 .00000E+00 0.000E+00 0.000E+00 0.000E+00 0.000E+00 0.000E+00
BIGSUB  24        0    1.45730E+03     4.155     0.000     0.000     0.000    98.515     0.000     0.000     0.000    21.911     0.000     0.000     0.000     0.000     0.000     0.000     0.444     0.000     0.000 .00000E+00 0.000E+00 0.000E+00 0.000E+00 0.000E+00 0.000E+00
BIGSUB  25        0    1.41071E+03     4.112     0.000     0.000     0.000    63.362     0.000     0.000     0.000    17.407     0.000     0.000     0.000     0.000     0.000     0.000     0.058     0.000     0.000 .00000E+00 0.000E+00 0.000E+00 0.000E+00 0.000E+00 0.000E+00
BIGSUB  26        0    1.57351E+03     2.533     0.000     0.000     0.000    98.603     0.000     0.000     0.000    10.804     0.000     0.000     0.000     0.000     0.000     0.000     0.143     0.000     0.000 .00000E+00 0.000E+00 0.000E+00 0.000E+00 0.000E+00 0.000E+00
BIGSUB  27        0    1.37953E+03     2.533     0.000     0.000     0.000    89.749     0.000     0.000     0.000     8.427     0.000     0.000     0.000     0.000     0.000     0.000     0.075     0.000     0.000 .00000E+00 0.000E+00 0.000E+00 0.000E+00 0.000E+00 0.000E+00
BIGSUB  28        0    1.14018E+04     0.664     0.000     0.000     0.000   156.787     0.000     0.000     0.000     4.873     0.000     0.000     0.000     0.000     0.000     0.000     0.023     0.000     0.000 .00000E+00 0.000E+00 0.000E+00 0.000E+00 0.000E+00 0.000E+00
BIGSUB  29        0    1.18983E+03     4.155     0.000     0.000     0.000    75.618     0.000     0.000     0.000     5.336     0.000     0.000     0.000     0.000     0.000     0.000     0.250     0.000     0.000 .00000E+00 0.000E+00 0.000E+00 0.000E+00 0.000E+00 0.000E+00
BIGSUB  30        0    1.22882E+02     2.533     0.000     0.000     0.000   117.590     0.000     0.000     0.000     8.820     0.000     0.000     0.000     0.000     0.000     0.000     0.557     0.000     0.000 .00000E+00 0.000E+00 0.000E+00 0.000E+00 0.000E+00 0.000E+00
BIGSUB  31        0    1.96917E+03     2.533     0.000     0.000     0.000    90.901     0.000     0.000     0.000     8.392     0.000     0.000     0.000     0.000     0.000     0.000     0.057     0.000     0.000 .00000E+00 0.000E+00 0.000E+00 0.000E+00 0.000E+00 0.000E+00
BIGSUB  32        0    1.46484E+03     2.497     0.000     0.000     0.000   100.319     0.000     0.000     0.000     8.521     0.000     0.000     0.000     0.000     0.000     0.000     0.118     0.000     0.000 .00000E+00 0.000E+00 0.000E+00 0.000E+00 0.000E+00 0.000E+00
BIGSUB  33        0    1.60356E+03     4.090     0.000     0.000     0.000   117.776     0.000     0.000     0.000     4.947     0.000     0.000     0.000     0.000     0.000     0.000     0.310     0.000     0.000 .00000E+00 0.000E+00 0.000E+00 0.000E+00 0.000E+00 0.000E+00
BIGSUB  34        0    1.42227E+03     2.523     0.000     0.000     0.000    97.745     0.000     0.000     0.000     8.511     0.000     0.000     0.000     0.000     0.000     0.000     0.113     0.000     0.000 .00000E+00 0.000E+00 0.000E+00 0.000E+00 0.000E+00 0.000E+00
BIGSUB  35        0    1.50029E+03     2.496     0.000     0.000     0.000    99.690     0.000     0.000     0.000     8.370     0.000     0.000     0.000     0.000     0.000     0.000     0.065     0.000     0.000 .00000E+00 0.000E+00 0.000E+00 0.000E+00 0.000E+00 0.000E+00
BIGSUB  36        0    1.79623E+01     2.533     0.000     0.000     0.000   100.928     0.000     0.000     0.000     8.511     0.000     0.000     0.000     0.000     0.000     0.000     0.082     0.000     0.000 .00000E+00 0.000E+00 0.000E+00 0.000E+00 0.000E+00 0.000E+00
BIGSUB  37        0    1.53324E+03     2.489     0.000     0.000     0.000    92.481     0.000     0.000     0.000     8.369     0.000     0.000     0.000     0.000     0.000     0.000     0.101     0.000     0.000 .00000E+00 0.000E+00 0.000E+00 0.000E+00 0.000E+00 0.000E+00
BIGSUB   1        0    2.35854E+03     5.144     0.000     0.000     0.000   158.886     0.000     0.000     0.000    14.682     0.000     0.000     0.000     0.000     0.000     0.000     0.396     0.000     0.000 .00000E+00 0.000E+00 0.000E+00 0.000E+00 0.000E+00 0.000E+00
BIGSUB   2        0    2.95872E+03     5.186     0.000     0.000     0.000   157.114     0.000     0.000     0.000     4.306     0.000     0.000     0.000     0.000     0.000     0.000     0.109     0.000     0.000 .00000E+00 0.000E+00 0.000E+00 0.000E+00 0.000E+00 0.000E+00
BIGSUB   3        0    2.14997E+04     5.185     0.000     0.000     0.000   158.264     0.000     0.000     0.000    15.195     0.000     0.000     0.000     0.000     0.000     0.000     0.396     0.000     0.000 .00000E+00 0.000E+00 0.000E+00 0.000E+00 0.000E+00 0.000E+00
BIGSUB   4        0    2.96287E+03     5.241     0.000     0.000     0.000   157.594     0.000     0.000     0.000     4.374     0.000     0.000     0.000     0.000     0.000     0.000     0.106     0.000     0.000 .00000E+00 0.000E+00 0.000E+00 0.000E+00 0.000E+00 0.000E+00
BIGSUB   5        0    2.33421E+02     5.270     0.000     0.000     0.000   157.845     0.000     0.000     0.000    14.820     0.000     0.000     0.000     0.000     0.000     0.000     0.400     0.000     0.000 .00000E+00 0.000E+00 0.000E+00 0.000E+00 0.000E+00 0.000E+00
BIGSUB   6        0    2.49426E+03     5.270     0.000     0.000     0.000   157.288     0.000     0.000     0.000     4.376     0.000     0.000     0.000     0.000     0.000     0.000     0.107     0.000     0.000 .00000E+00 0.000E+00 0.000E+00 0.000E+00 0.000E+00 0.000E+00
BIGSUB   7        0    2.59737E+02     5.808     0.000     0.000     0.000   106.292     0.000     0.000     0.000    15.022     0.000     0.000     0.000     0.000     0.000     0.000     0.143     0.000     0.000 .00000E+00 0.000E+00 0.000E+00 0.000E+00 0.000E+00 0.000E+00
BIGSUB   8        0    2.81851E+03     5.983     0.000     0.000     0.000    92.193     0.000     0.000     0.000     4.389     0.000     0.000     0.000     0.000     0.000     0.000     0.070     0.000     0.000 .00000E+00 0.000E+00 0.000E+00 0.000E+00 0.000E+00 0.000E+00
BIGSUB   9        0    2.19056E+03     5.989     0.000     0.000     0.000    68.461     0.000     0.000     0.000     8.421     0.000     0.000     0.000     0.000     0.000     0.000     0.155     0.000     0.000 .00000E+00 0.000E+00 0.000E+00 0.000E+00 0.000E+00 0.000E+00
BIGSUB  10        0    2.14199E+02     5.270     0.000     0.000     0.000   159.687     0.000     0.000     0.000     6.072     0.000     0.000     0.000     0.000     0.000     0.000     0.078     0.000     0.000 .00000E+00 0.000E+00 0.000E+00 0.000E+00 0.000E+00 0.000E+00
BIGSUB  11        0    2.20388E+02     5.270     0.000     0.000     0.000   158.846     0.000     0.000     0.000    10.286     0.000     0.000     0.000     0.000     0.000     0.000     0.210     0.000     0.000 .00000E+00 0.000E+00 0.000E+00 0.000E+00 0.000E+00 0.000E+00
BIGSUB  12        0    2.18155E+03     5.270     0.000     0.000     0.000   146.666     0.000     0.000     0.000     6.392     0.000     0.000     0.000     0.000     0.000     0.000     0.173     0.001     0.000 .00000E+00 0.000E+00 0.000E+00 0.000E+00 0.000E+00 0.000E+00
BIGSUB  13        0    2.26490E+03     5.270     0.000     0.000     0.000   112.814     0.000     0.000     0.000    12.816     0.000     0.000     0.000     0.000     0.000     0.000     0.222     0.000     0.000 .00000E+00 0.000E+00 0.000E+00 0.000E+00 0.000E+00 0.000E+00
BIGSUB  14        0    2.10820E+03     5.270     0.000     0.000     0.000    70.257     0.000     0.000     0.000     3.983     0.000     0.000     0.000     0.000     0.000     0.000     0.101     0.000     0.000 .00000E+00 0.000E+00 0.000E+00 0.000E+00 0.000E+00 0.000E+00
BIGSUB  15        0    2.22873E+04     5.244     0.000     0.000     0.000   119.296     0.000     0.000     0.000     4.260     0.000     0.000     0.000     0.000     0.000     0.000     0.038     0.000     0.000 .00000E+00 0.000E+00 0.000E+00 0.000E+00 0.000E+00 0.000E+00
BIGSUB  16        0    2.59806E+03     5.270     0.000     0.000     0.000    70.041     0.000     0.000     0.000     7.056     0.000     0.000     0.000     0.000     0.000     0.000     0.180     0.000     0.000 .00000E+00 0.000E+00 0.000E+00 0.000E+00 0.000E+00 0.000E+00
BIGSUB  17        0    2.39043E+03     5.097     0.000     0.000     0.000   156.526     0.000     0.000     0.000     6.889     0.000     0.000     0.000     0.000     0.000     0.000     0.032     0.000     0.000 .00000E+00 0.000E+00 0.000E+00 0.000E+00 0.000E+00 0.000E+00
BIGSUB  18        0    2.17456E+03     6.080     0.000     0.000     0.000    66.683     0.002     0.000     0.000     4.418     0.000     0.000     0.000     0.000     0.000     0.000     0.036     0.000     0.000 .00000E+00 0.000E+00 0.000E+00 0.000E+00 0.000E+00 0.000E+00
BIGSUB  19        0    2.95467E+03     6.027     0.000     0.000     0.000   110.324     0.000     0.000     0.000    18.786     0.000     0.000     0.000     0.000     0.000     0.000     0.093     0.000     0.000 .00000E+00 0.000E+00 0.000E+00 0.000E+00 0.000E+00 0.000E+00
BIGSUB  20        0    2.54572E+03     5.270     0.000     0.000     0.000   107.121     0.000     0.000     0.000     4.021     0.000     0.000     0.000     0.000     0.000     0.000     0.049     0.000     0.000 .00000E+00 0.000E+00 0.000E+00 0.000E+00 0.000E+00 0.000E+00
BIGSUB  21        0    2.67377E+03     5.154     0.000     0.000     0.000    69.731     0.000     0.000     0.000     3.836     0.000     0.000     0.000     0.000     0.000     0.000     0.046     0.000     0.000 .00000E+00 0.000E+00 0.000E+00 0.000E+00 0.000E+00 0.000E+00
BIGSUB  22        0    2.23228E+03     6.080     0.000     0.000     0.000    68.553     0.000     0.000     0.000     7.048     0.000     0.000     0.000     0.000     0.000     0.000     0.139     0.000     0.000 .00000E+00 0.000E+00 0.000E+00 0.000E+00 0.000E+00 0.000E+00
BIGSUB  23        0    2.17334E+01     6.080     0.000     0.000     0.000   119.627     0.000     0.000     0.000     3.879     0.000     0.000     0.000     0.000     0.000     0.000     0.073     0.000     0.000 .00000E+00 0.000E+00 0.000E+00 0.000E+00 0.000E+00 0.000E+00
BIGSUB  24        0    2.45730E+03     6.080     0.000     0.000     0.000    98.515     0.000     0.000     0.000    19.274     0.000     0.000     0.000     0.000     0.000     0.000     0.352     0.000     0.000 .00000E+00 0.000E+00 0.000E+00 0.000E+00 0.000E+00 0.000E+00
BIGSUB  25        0    2.41071E+03     6.017     0.000     0.000     0.000    63.354     0.008     0.000     0.000    15.374     0.000     0.000     0.000     0.000     0.000     0.000     0.048     0.000     0.000 .00000E+00 0.000E+00 0.000E+00 0.000E+00 0.000E+00 0.000E+00
BIGSUB  26        0    2.57351E+03     8.006     0.000     0.000     0.000    98.603     0.000     0.000     0.000     9.461     0.000     0.000     0.000     0.000     0.000     0.000     0.107     0.000     0.000 .00000E+00 0.000E+00 0.000E+00 0.000E+00 0.000E+00 0.000E+00
BIGSUB  27        0    2.37953E+03     8.006     0.000     0.000     0.000    89.749     0.000     0.000     0.000     7.387     0.000     0.000     0.000     0.000     0.000     0.000     0.058     0.000     0.000 .00000E+00 0.000E+00 0.000E+00 0.000E+00 0.000E+00 0.000E+00
BIGSUB  28        0    2.14018E+04     4.931     0.000     0.000     0.000   156.787     0.000     0.000     0.000     4.240     0.000     0.000     0.000     0.000     0.000     0.000     0.018     0.000     0.000 .00000E+00 0.000E+00 0.000E+00 0.000E+00 0.000E+00 0.000E+00
BIGSUB  29        0    2.18983E+03     6.080     0.000     0.000     0.000    75.618     0.000     0.000     0.000     4.642     0.000     0.000     0.000     0.000     0.000     0.000     0.184     0.000     0.000 .00000E+00 0.000E+00 0.000E+00 0.000E+00 0.000E+00 0.000E+00
BIGSUB  30        0    2.22882E+02     8.006     0.000     0.000     0.000   117.590     0.000     0.000     0.000     7.643     0.000     0.000     0.000     0.000     0.000     0.000     0.409     0.000     0.000 .00000E+00 0.000E+00 0.000E+00 0.000E+00 0.000E+00 0.000E+00
BIGSUB  31        0    2.96917E+03     8.006     0.000     0.000     0.000    90.901     0.000     0.000     0.000     7.358     0.000     0.000     0.000     0.000     0.000     0.000     0.043     0.000     0.000 .00000E+00 0.000E+00 0.000E+00 0.000E+00 0.000E+00 0.000E+00
BIGSUB  32        0    2.46484E+03     7.891     0.000     0.000     0.000   100.319     0.000     0.000     0.000     7.456     0.000     0.000     0.000     0.000     0.000     0.000     0.089     0.000     0.000 .00000E+00 0.000E+00 0.000E+00 0.000E+00 0.000E+00 0.000E+00
BIGSUB  33        0    2.60356E+03     5.986     0.000     0.000     0.000   117.776     0.000     0.000     0.000     4.284     0.000     0.000     0.000     0.000     0.000     0.000     0.228     0.000     0.000 .00000E+00 0.000E+00 0.000E+00 0.000E+00 0.000E+00 0.000E+00
BIGSUB  34        0    2.42227E+03     7.974     0.000     0.000     0.000    97.745     0.000     0.000     0.000     7.450     0.000     0.000     0.000     0.000     0.000     0.000     0.085     0.000     0.000 .00000E+00 0.000E+00 0.000E+00 0.000E+00 0.000E+00 0.000E+00
BIGSUB  35        0    2.50029E+03     7.886     0.000     0.000     0.000    99.690     0.000     0.000     0.000     7.334     0.000     0.000     0.000     0.000     0.000     0.000     0.049     0.000     0.000 .00000E+00 0.000E+00 0.000E+00 0.000E+00 0.000E+00 0.000E+00
BIGSUB  36        0    2.79623E+01     8.006     0.000     0.000     0.000   100.928     0.000     0.000     0.000     7.452     0.000     0.000     0.000     0.000     0.000     0.000     0.062     0.000     0.000 .00000E+00 0.000E+00 0.000E+00 0.000E+00 0.000E+00 0.000E+00
BIGSUB  37        0    2.53324E+03     7.864     0.000     0.000     0.000    92.481     0.000     0.000     0.000     7.333     0.000     0.000     0.000     0.000     0.000     0.000     0.077     0.000     0.000 .00000E+00 0.000E+00 0.000E+00 0.000E+00 0.000E+00 0.000E+00
BIGSUB   1        0    3.35854E+03     4.155     0.000     0.000     0.000   159.586     0.000     0.000     0.000    15.519     0.000     0.000     0.000     0.000     0.000     0.000     0.353     0.000     0.000 .00000E+00 0.000E+00 0.000E+00 0.000E+00 0.000E+00 0.000E+00
BIGSUB   2        0    3.95872E+03     4.188     0.000     0.000     0.000   157.814     0.000     0.000     0.000     4.535     0.000     0.000     0.000     0.000     0.000     0.000     0.105     0.000     0.000 .00000E+00 0.000E+00 0.000E+00 0.000E+00 0.000E+00 0.000E+00
BIGSUB   3        0    3.14997E+04     4.187     0.000     0.000     0.000   158.964     0.000     0.000     0.000    16.092     0.000     0.000     0.000     0.000     0.000     0.000     0.384     0.000     0.000 .00000E+00 0.000E+00 0.000E+00 0.000E+00 0.000E+00 0.000E+00
BIGSUB   4        0    3.96287E+03     4.233     0.000     0.000     0.000   158.294     0.000     0.000     0.000     4.608     0.000     0.000     0.000     0.000     0.000     0.000     0.102     0.000     0.000 .00000E+00 0.000E+00 0.000E+00 0.000E+00 0.000E+00 0.000E+00
BIGSUB   5        0    3.33421E+02     4.256     0.000     0.000     0.000   158.545     0.000     0.000     0.000    15.687     0.000     0.000     0.000     0.000     0.000     0.000     0.387     0.000     0.000 .00000E+00 0.000E+00 0.000E+00 0.000E+00 0.000E+00 0.000E+00
BIGSUB   6        0    3.49426E+03     4.256     0.000     0.000     0.000   157.988     0.000     0.000     0.000     4.609     0.000     0.000     0.000     0.000     0.000     0.000     0.103     0.000     0.000 .00000E+00 0.000E+00 0.000E+00 0.000E+00 0.000E+00 0.000E+00
BIGSUB   7        0    3.59737E+02    14.811     0.668     0.000     0.000   109.016     0.000     0.344     0.000    16.320     0.000     0.001     0.000     0.000     0.000     0.000     0.140     0.000     0.000 .00000E+00 0.000E+00 0.000E+00 0.000E+00 0.000E+00 0.000E+00
BIGSUB   8        0    3.81851E+03    15.258     0.668     0.000     0.000    94.917     0.000     0.344     0.000     4.994     0.000     0.001     0.000     0.000     0.000     0.000     0.069     0.000     0.000 .00000E+00 0.000E+00 0.000E+00 0.000E+00 0.000E+00 0.000E+00
BIGSUB   9        0    3.19056E+03    15.272     0.668     0.000     0.000    71.185     0.000     0.344     0.000     9.293     0.001     0.001     0.000     0.000     0.000     0.000     0.157     0.000     0.000 .00000E+00 0.000E+00 0.000E+00 0.000E+00 0.000E+00 0.000E+00
BIGSUB  10        0    3.14199E+02     4.256     0.000     0.000     0.000   160.387     0.000     0.000     0.000     6.396     0.000     0.000     0.000     0.000     0.000     0.000     0.064     0.000     0.000 .00000E+00 0.000E+00 0.000E+00 0.000E+00 0.000E+00 0.000E+00
BIGSUB  11        0    3.20388E+02     4.256     0.000     0.000     0.000   159.546     0.000     0.000     0.000    10.855     0.000     0.000     0.000     0.000     0.000     0.000     0.175     0.000     0.000 .00000E+00 0.000E+00 0.000E+00 0.000E+00 0.000E+00 0.000E+00
BIGSUB  12        0    3.18155E+03     4.256     0.000     0.000     0.000   147.366     0.000     0.000     0.000     6.744     0.000     0.000     0.000     0.000     0.000     0.000     0.151     0.001     0.000 .00000E+00 0.000E+00 0.000E+00 0.000E+00 0.000E+00 0.000E+00
BIGSUB  13        0    3.26490E+03     4.256     0.000     0.000     0.000   113.514     0.000     0.000     0.000    13.541     0.000     0.000     0.000     0.000     0.000     0.000     0.183     0.000     0.000 .00000E+00 0.000E+00 0.000E+00 0.000E+00 0.000E+00 0.000E+00
BIGSUB  14        0    3.10820E+03     4.256     0.000     0.000     0.000    70.957     0.000     0.000     0.000     4.185     0.000     0.000     0.000     0.000     0.000     0.000     0.084     0.000     0.000 .00000E+00 0.000E+00 0.000E+00 0.000E+00 0.000E+00 0.000E+00
BIGSUB  15        0    3.22873E+04     4.236     0.000     0.000     0.000   119.996     0.000     0.000     0.000     4.492     0.000     0.000     0.000     0.000     0.000     0.000     0.035     0.000     0.000 .00000E+00 0.000E+00 0.000E+00 0.000E+00 0.000E+00 0.000E+00
BIGSUB  16        0    3.59806E+03     4.256     0.000     0.000     0.000    70.741     0.000     0.000     0.000     7.429     0.000     0.000     0.000     0.000     0.000     0.000     0.149     0.000     0.000 .00000E+00 0.000E+00 0.000E+00 0.000E+00 0.000E+00 0.000E+00
BIGSUB  17        0    3.39043E+03     4.117     0.000     0.000     0.000   157.226     0.000     0.000     0.000     7.290     0.000     0.000     0.000     0.000     0.000     0.000     0.031     0.000     0.000 .00000E+00 0.000E+00 0.000E+00 0.000E+00 0.000E+00 0.000E+00
BIGSUB  18        0    3.17456E+03    15.505     0.668     0.000     0.000    69.406     0.001     0.344     0.000     5.039     0.000     0.000     0.000     0.000     0.000     0.000     0.036     0.000     0.000 .00000E+00 0.000E+00 0.000E+00 0.000E+00 0.000E+00 0.000E+00
BIGSUB  19        0    3.95467E+03    15.369     0.668     0.000     0.000   113.296     0.017     0.080     0.000    20.106     0.000     0.000     0.000     0.000     0.000     0.000     0.094     0.000     0.000 .00000E+00 0.000E+00 0.000E+00 0.000E+00 0.000E+00 0.000E+00
BIGSUB  20        0    3.54572E+03     4.256     0.000     0.000     0.000   107.821     0.000     0.000     0.000     4.239     0.000     0.000     0.000     0.000     0.000     0.000     0.043     0.000     0.000 .00000E+00 0.000E+00 0.000E+00 0.000E+00 0.000E+00 0.000E+00
BIGSUB  21        0    3.67377E+03     4.163     0.000     0.000     0.000    70.431     0.000     0.000     0.000     4.044     0.000     0.000     0.000     0.000     0.000     0.000     0.038     0.000     0.000 .00000E+00 0.000E+00 0.000E+00 0.000E+00 0.000E+00 0.000E+00
BIGSUB  22        0    3.23228E+03    15.505     0.668     0.000     0.000    71.277     0.000     0.344     0.000     7.830     0.000     0.000     0.000     0.000     0.000     0.000     0.140     0.000     0.000 .00000E+00 0.000E+00 0.000E+00 0.000E+00 0.000E+00 0.000E+00
BIGSUB  23        0    3.17334E+01    15.505     0.634     0.000     0.000   122.324     0.000     0.337     0.000     4.439     0.000     0.000     0.000     0.000     0.000     0.000     0.066     0.000     0.000 .00000E+00 0.000E+00 0.000E+00 0.000E+00 0.000E+00 0.000E+00
BIGSUB  24        0    3.45730E+03    15.505     0.668     0.000     0.000   101.485     0.000     0.098     0.000    20.595     0.000     0.001     0.000     0.000     0.000     0.000     0.344     0.000     0.000 .00000E+00 0.000E+00 0.000E+00 0.000E+00 0.000E+00 0.000E+00
BIGSUB  25        0    3.41071E+03    15.343     0.668     0.000     0.000    66.071     0.006     0.343     0.000    16.743     0.000     0.001     0.000     0.000     0.000     0.000     0.049     0.000     0.000 .00000E+00 0.000E+00 0.000E+00 0.000E+00 0.000E+00 0.000E+00
BIGSUB  26        0    3.57351E+03     8.310     0.000     0.000     0.000   101.228     0.012     0.463     0.000    10.492     0.000     0.000     0.000     0.000     0.000     0.000     0.098     0.000     0.000 .00000E+00 0.000E+00 0.000E+00 0.000E+00 0.000E+00 0.000E+00
BIGSUB  27        0    3.37953E+03     8.310     0.000     0.000     0.000    92.372     0.014     0.464     0.000     8.300     0.000     0.000     0.000     0.000     0.000     0.000     0.055     0.000     0.000 .00000E+00 0.000E+00 0.000E+00 0.000E+00 0.000E+00 0.000E+00
BIGSUB  28        0    3.14018E+04     3.983     0.000     0.000     0.000   157.487     0.000     0.000     0.000     4.474     0.000     0.000     0.000     0.000     0.000     0.000     0.018     0.000     0.000 .00000E+00 0.000E+00 0.000E+00 0.000E+00 0.000E+00 0.000E+00
BIGSUB  29        0    3.18983E+03    15.505     0.668     0.000     0.000    78.342     0.000     0.344     0.000     5.238     0.001     0.002     0.000     0.000     0.000     0.000     0.165     0.000     0.000 .00000E+00 0.000E+00 0.000E+00 0.000E+00 0.000E+00 0.000E+00
BIGSUB  30        0    3.22882E+02     8.310     0.000     0.000     0.000   120.226     0.000     0.464     0.000     8.499     0.002     0.002     0.000     0.000     0.000     0.001     0.369     0.000     0.000 .00000E+00 0.000E+00 0.000E+00 0.000E+00 0.000E+00 0.000E+00
BIGSUB  31        0    3.96917E+03     8.310     0.000     0.000     0.000    93.524     0.013     0.464     0.000     8.270     0.000     0.000     0.000     0.000     0.000     0.000     0.041     0.000     0.000 .00000E+00 0.000E+00 0.000E+00 0.000E+00 0.000E+00 0.000E+00
BIGSUB  32        0    3.46484E+03     8.191     0.000     0.000     0.000   102.947     0.009     0.464     0.000     8.362     0.000     0.000     0.000     0.000     0.000     0.000     0.081     0.000     0.000 .00000E+00 0.000E+00 0.000E+00 0.000E+00 0.000E+00 0.000E+00
BIGSUB  33        0    3.60356E+03    15.263     0.668     0.000     0.000   120.500     0.000     0.344     0.000     4.846     0.000     0.001     0.000     0.000     0.000     0.000     0.206     0.000     0.000 .00000E+00 0.000E+00 0.000E+00 0.000E+00 0.000E+00 0.000E+00
BIGSUB  34        0    3.42227E+03     8.276     0.000     0.000     0.000   100.372     0.010     0.463     0.000     8.358     0.000     0.000     0.000     0.000     0.000     0.000     0.078     0.000     0.000 .00000E+00 0.000E+00 0.000E+00 0.000E+00 0.000E+00 0.000E+00
BIGSUB  35        0    3.50029E+03     8.185     0.000     0.000     0.000   102.318     0.009     0.464     0.000     8.240     0.000     0.000     0.000     0.000     0.000     0.000     0.045     0.000     0.000 .00000E+00 0.000E+00 0.000E+00 0.000E+00 0.000E+00 0.000E+00
BIGSUB  36        0    3.79623E+01     8.310     0.000     0.000     0.000   103.556     0.008     0.464     0.000     8.362     0.000     0.000     0.000     0.000     0.000     0.000     0.057     0.000     0.000 .00000E+00 0.000E+00 0.000E+00 0.000E+00 0.000E+00 0.000E+00
BIGSUB  37        0    3.53324E+03     8.163     0.000     0.000     0.000    95.105     0.012     0.464     0.000     8.239     0.000     0.000     0.000     0.000     0.000     0.000     0.072     0.000     0.000 .00000E+00 0.000E+00 0.000E+00 0.000E+00 0.000E+00 0.000E+00
BIGSUB   1        0    4.35854E+03    19.193    15.219     0.055     0.028   155.131    38.268     0.026     0.000    14.348     0.000     0.000     0.000     0.000     0.000     0.000     0.341     0.000     0.000 .00000E+00 0.000E+00 0.000E+00 0.000E+00 0.000E+00 0.000E+00
BIGSUB   2        0    4.95872E+03    19.346    20.154     0.056     0.028   154.321    29.923    12.382     0.000    16.596     0.007     0.018     0.002     0.028     0.002     0.005     0.114     0.000     0.000 .00000E+00 0.000E+00 0.000E+00 0.000E+00 0.000E+00 0.000E+00
BIGSUB   3        0    4.14997E+04    19.342    15.218     0.056     0.028   154.352    38.602     0.000     0.000    14.833     0.000     0.000     0.000     0.000     0.000     0.000     0.355     0.000     0.000 .00000E+00 0.000E+00 0.000E+00 0.000E+00 0.000E+00 0.000E+00
BIGSUB   4        0    4.96287E+03    19.551    15.217     0.059     0.029   154.315    28.320     9.543     0.000    13.819     0.005     0.013     0.002     0.023     0.002     0.004     0.109     0.000     0.000 .00000E+00 0.000E+00 0.000E+00 0.000E+00 0.000E+00 0.000E+00
BIGSUB   5        0    4.33421E+02    19.660    18.403     0.064     0.032   154.358    41.290     0.000     0.000    14.466     0.000     0.000     0.000     0.000     0.000     0.000     0.362     0.000     0.000 .00000E+00 0.000E+00 0.000E+00 0.000E+00 0.000E+00 0.000E+00
BIGSUB   6        0    4.49426E+03    19.660    20.017     0.063     0.031   154.321    30.058    12.342     0.000    16.623     0.007     0.018     0.002     0.028     0.002     0.005     0.112     0.000     0.000 .00000E+00 0.000E+00 0.000E+00 0.000E+00 0.000E+00 0.000E+00
BIGSUB   7        0    4.59737E+02    25.169    54.336     0.000     0.000   103.990    71.951    13.007     0.000    27.834     0.022     0.044     0.006     0.004     0.002     0.011     0.142     0.000     0.000 .00000E+00 0.000E+00 0.000E+00 0.000E+00 0.000E+00 0.000E+00
BIGSUB   8        0    4.81851E+03    25.928    54.333     0.000     0.000    88.607    42.401    43.552     0.000    47.906     0.063     0.143     0.018     0.035     0.006     0.032     0.079     0.000     0.000 .00000E+00 0.000E+00 0.000E+00 0.000E+00 0.000E+00 0.000E+00
BIGSUB   9        0    4.19056E+03    25.952    54.334     0.000     0.000    66.492    51.142    33.323     0.000    41.630     0.051     0.096     0.012     0.010     0.005     0.025     0.157     0.000     0.000 .00000E+00 0.000E+00 0.000E+00 0.000E+00 0.000E+00 0.000E+00
BIGSUB  10        0    4.14199E+02    19.660    22.441     0.067     0.033   156.443    36.014     9.282     0.000    15.235     0.001     0.007     0.001     0.025     0.002     0.001     0.101     0.000     0.000 .00000E+00 0.000E+00 0.000E+00 0.000E+00 0.000E+00 0.000E+00
BIGSUB  11        0    4.20388E+02    19.660    20.793     0.066     0.033   155.698    38.905     4.448     0.000    14.504     0.001     0.003     0.000     0.010     0.001     0.001     0.200     0.001     0.000 .00000E+00 0.000E+00 0.000E+00 0.000E+00 0.000E+00 0.000E+00
BIGSUB  12        0    4.18155E+03    19.660    16.931     0.063     0.032   142.763    34.129     6.121     0.000    12.401     0.255     0.408     0.078     0.123     0.001     0.047     0.177     0.002     0.000 .00000E+00 0.000E+00 0.000E+00 0.000E+00 0.000E+00 0.000E+00
BIGSUB  13        0    4.26490E+03    19.660    19.520     0.066     0.033   109.477    41.409     0.854     0.000    13.378     0.000     0.000     0.000     0.000     0.000     0.000     0.205     0.000     0.000 .00000E+00 0.000E+00 0.000E+00 0.000E+00 0.000E+00 0.000E+00
BIGSUB  14        0    4.10820E+03    19.660    19.015     0.066     0.033    67.130    29.639    11.825     0.000    15.751     0.002     0.005     0.001     0.017     0.003     0.001     0.128     0.000     0.000 .00000E+00 0.000E+00 0.000E+00 0.000E+00 0.000E+00 0.000E+00
BIGSUB  15        0    4.22873E+04    19.566    19.334     0.064     0.032   117.912    28.449    11.213     0.000    15.380     0.009     0.030     0.004     0.025     0.002     0.006     0.046     0.000     0.000 .00000E+00 0.000E+00 0.000E+00 0.000E+00 0.000E+00 0.000E+00
BIGSUB  16        0    4.59806E+03    19.660    18.514     0.064     0.032    67.140    35.632     5.018     0.000    11.932     0.001     0.002     0.000     0.005     0.001     0.000     0.191     0.000     0.000 .00000E+00 0.000E+00 0.000E+00 0.000E+00 0.000E+00 0.000E+00
BIGSUB  17        0    4.39043E+03    19.017    19.094     0.058     0.029   154.363    36.401     4.675     0.000    11.415     0.000     0.001     0.000     0.006     0.001     0.000     0.031     0.000     0.000 .00000E+00 0.000E+00 0.000E+00 0.000E+00 0.000E+00 0.000E+00
BIGSUB  18        0    4.17456E+03    26.348    54.332     0.000     0.000    67.430    38.266    43.578     0.000    47.952     0.019     0.049     0.006     0.027     0.008     0.012     0.038     0.000     0.000 .00000E+00 0.000E+00 0.000E+00 0.000E+00 0.000E+00 0.000E+00
BIGSUB  19        0    4.95467E+03    26.117    54.327     0.000     0.000   112.346    73.214     7.853     0.000    26.402     0.004     0.011     0.001     0.001     0.002     0.003     0.091     0.000     0.000 .00000E+00 0.000E+00 0.000E+00 0.000E+00 0.000E+00 0.000E+00
BIGSUB  20        0    4.54572E+03    19.660    19.464     0.064     0.032   104.550    29.624    11.963     0.000    15.906     0.001     0.004     0.000     0.022     0.003     0.001     0.059     0.000     0.000 .00000E+00 0.000E+00 0.000E+00 0.000E+00 0.000E+00 0.000E+00
BIGSUB  21        0    4.67377E+03    19.228    18.968     0.062     0.031    67.132    29.444    11.204     0.000    14.973     0.000     0.001     0.000     0.016     0.003     0.000     0.058     0.000     0.000 .00000E+00 0.000E+00 0.000E+00 0.000E+00 0.000E+00 0.000E+00
BIGSUB  22        0    4.23228E+03    26.348    54.331     0.001     0.000    66.185    47.832    36.935     0.000    43.892     0.040     0.085     0.011     0.015     0.006     0.022     0.142     0.000     0.000 .00000E+00 0.000E+00 0.000E+00 0.000E+00 0.000E+00 0.000E+00
BIGSUB  23        0    4.17334E+01    26.348    52.028     0.001     0.001   116.421    41.853    41.657     0.000    45.509     0.013     0.028     0.004     0.076     0.008     0.007     0.086     0.000     0.000 .00000E+00 0.000E+00 0.000E+00 0.000E+00 0.000E+00 0.000E+00
BIGSUB  24        0    4.45730E+03    26.348    54.325     0.000     0.000    94.843    78.591     7.503     0.000    26.521     0.035     0.068     0.008     0.001     0.001     0.017     0.344     0.000     0.000 .00000E+00 0.000E+00 0.000E+00 0.000E+00 0.000E+00 0.000E+00
BIGSUB  25        0    4.41071E+03    26.074    54.323     0.000     0.000    78.659    57.819     9.766     0.000    24.951     0.008     0.029     0.004     0.002     0.002     0.007     0.048     0.000     0.000 .00000E+00 0.000E+00 0.000E+00 0.000E+00 0.000E+00 0.000E+00
BIGSUB  26        0    4.57351E+03    34.861    31.261     0.002     0.001   101.694    38.133    26.079     0.000    35.350     0.006     0.019     0.002     0.022     0.005     0.005     0.104     0.000     0.000 .00000E+00 0.000E+00 0.000E+00 0.000E+00 0.000E+00 0.000E+00
BIGSUB  27        0    4.37953E+03    34.861    31.259     0.002     0.001    93.172    31.975    32.119     0.000    39.364     0.006     0.019     0.002     0.032     0.006     0.005     0.058     0.000     0.000 .00000E+00 0.000E+00 0.000E+00 0.000E+00 0.000E+00 0.000E+00
BIGSUB  28        0    4.14018E+04    18.396    20.132     0.058     0.029   154.327    29.976    11.656     0.000    15.798     0.000     0.001     0.000     0.026     0.002     0.000     0.019     0.000     0.000 .00000E+00 0.000E+00 0.000E+00 0.000E+00 0.000E+00 0.000E+00
BIGSUB  29        0    4.18983E+03    26.348    54.323     0.000     0.000    72.667    41.051    43.601     0.000    48.238     0.162     0.349     0.044     0.036     0.006     0.076     0.224     0.000     0.000 .00000E+00 0.000E+00 0.000E+00 0.000E+00 0.000E+00 0.000E+00
BIGSUB  30        0    4.22882E+02    34.861    31.260     0.003     0.002   116.492    35.166    32.681     0.000    40.174     0.102     0.162     0.020     0.041     0.004     0.042     0.413     0.000     0.000 .00000E+00 0.000E+00 0.000E+00 0.000E+00 0.000E+00 0.000E+00
BIGSUB  31        0    4.96917E+03    34.861    31.257     0.002     0.001    94.155    32.190    31.980     0.000    39.197     0.004     0.014     0.002     0.032     0.007     0.003     0.044     0.000     0.000 .00000E+00 0.000E+00 0.000E+00 0.000E+00 0.000E+00 0.000E+00
BIGSUB  32        0    4.46484E+03    34.361    31.258     0.003     0.001   102.069    33.529    31.981     0.000    39.289     0.007     0.021     0.003     0.034     0.006     0.005     0.089     0.000     0.000 .00000E+00 0.000E+00 0.000E+00 0.000E+00 0.000E+00 0.000E+00
BIGSUB  33        0    4.60356E+03    25.938    54.318     0.000     0.000   116.327    39.312    43.058     0.000    47.322     0.052     0.127     0.016     0.037     0.006     0.033     0.270     0.000     0.000 .00000E+00 0.000E+00 0.000E+00 0.000E+00 0.000E+00 0.000E+00
BIGSUB  34        0    4.42227E+03    34.720    31.259     0.003     0.001    99.901    33.141    31.866     0.000    39.170     0.007     0.022     0.003     0.034     0.006     0.005     0.085     0.000     0.000 .00000E+00 0.000E+00 0.000E+00 0.000E+00 0.000E+00 0.000E+00
BIGSUB  35        0    4.50029E+03    34.339    31.254     0.000     0.000   101.559    33.553    32.326     0.000    39.518     0.005     0.015     0.002     0.035     0.006     0.004     0.049     0.000     0.000 .00000E+00 0.000E+00 0.000E+00 0.000E+00 0.000E+00 0.000E+00
BIGSUB  36        0    4.79623E+01    34.861    31.258     0.003     0.001   102.593    33.716    32.674     0.000    39.978     0.006     0.014     0.002     0.036     0.006     0.004     0.062     0.000     0.000 .00000E+00 0.000E+00 0.000E+00 0.000E+00 0.000E+00 0.000E+00
BIGSUB  37        0    4.53324E+03    34.243    31.255     0.001     0.001    95.465    32.344    32.352     0.000    39.546     0.011     0.030     0.004     0.032     0.006     0.007     0.077     0.000     0.000 .00000E+00 0.000E+00 0.000E+00 0.000E+00 0.000E+00 0.000E+00
BIGSUB   1        0    5.35854E+03    80.134    20.142     2.571     1.650   155.723    83.700     3.680     0.000    18.598     0.005     0.012     0.001     0.001     0.001     0.003     0.629     0.002     0.000 .00000E+00 0.000E+00 0.000E+00 0.000E+00 0.000E+00 0.000E+00
BIGSUB   2        0    5.95872E+03    80.775    22.579     2.606     1.672   154.481    43.807    43.940     0.000    48.581     0.036     0.091     0.011     0.039     0.007     0.024     0.202     0.001     0.000 .00000E+00 0.000E+00 0.000E+00 0.000E+00 0.000E+00 0.000E+00
BIGSUB   3        0    5.14997E+04    80.759    20.140     2.593     1.664   155.433    85.291     1.787     0.000    17.062     0.001     0.004     0.001     0.000     0.000     0.001     0.495     0.001     0.000 .00000E+00 0.000E+00 0.000E+00 0.000E+00 0.000E+00 0.000E+00
BIGSUB   4        0    5.96287E+03    81.632    20.139     2.622     1.682   154.481    42.617    42.376     0.000    47.049     0.035     0.088     0.011     0.039     0.007     0.023     0.190     0.001     0.000 .00000E+00 0.000E+00 0.000E+00 0.000E+00 0.000E+00 0.000E+00
BIGSUB   5        0    5.33421E+02    82.085    21.792     2.643     1.695   155.407    86.220     2.993     0.000    17.954     0.009     0.016     0.002     0.001     0.001     0.004     0.513     0.001     0.000 .00000E+00 0.000E+00 0.000E+00 0.000E+00 0.000E+00 0.000E+00
BIGSUB   6        0    5.49426E+03    82.085    22.518     2.644     1.696   154.481    43.801    44.232     0.000    48.937     0.036     0.092     0.012     0.039     0.007     0.024     0.197     0.001     0.000 .00000E+00 0.000E+00 0.000E+00 0.000E+00 0.000E+00 0.000E+00
BIGSUB   7        0    5.59737E+02    50.629    25.874     2.661     1.795   100.910    70.196     4.075     0.000    19.594     0.010     0.019     0.002     0.002     0.001     0.005     0.195     0.000     0.000 .00000E+00 0.000E+00 0.000E+00 0.000E+00 0.000E+00 0.000E+00
BIGSUB   8        0    5.81851E+03    52.155    25.873     2.744     1.852    86.565    41.648    31.961     0.000    36.844     0.058     0.134     0.017     0.030     0.005     0.030     0.130     0.000     0.000 .00000E+00 0.000E+00 0.000E+00 0.000E+00 0.000E+00 0.000E+00
BIGSUB   9        0    5.19056E+03    52.203    25.871     2.749     1.854    63.190    56.422    17.944     0.000    26.828     0.039     0.064     0.008     0.009     0.003     0.017     0.212     0.000     0.000 .00000E+00 0.000E+00 0.000E+00 0.000E+00 0.000E+00 0.000E+00
BIGSUB  10        0    5.14199E+02    82.085    23.493     2.642     1.693   156.446    54.481    37.846     0.000    44.379     0.006     0.037     0.005     0.036     0.009     0.005     0.288     0.002     0.000 .00000E+00 0.000E+00 0.000E+00 0.000E+00 0.000E+00 0.000E+00
BIGSUB  11        0    5.20388E+02    82.085    22.841     2.644     1.694   155.756    70.759    20.550     0.000    31.266     0.008     0.022     0.003     0.016     0.004     0.005     0.482     0.002     0.000 .00000E+00 0.000E+00 0.000E+00 0.000E+00 0.000E+00 0.000E+00
BIGSUB  12        0    5.18155E+03    82.085    20.781     2.647     1.571   142.902    58.025    35.290     0.000    42.188     1.280     2.239     0.416     0.242     0.008     0.306     0.411     0.007     0.000 .00000E+00 0.000E+00 0.000E+00 0.000E+00 0.000E+00 0.000E+00
BIGSUB  13        0    5.26490E+03    82.085    22.276     2.654     1.701   109.592    81.707     8.397     0.000    21.615     0.002     0.007     0.001     0.002     0.002     0.002     0.522     0.001     0.000 .00000E+00 0.000E+00 0.000E+00 0.000E+00 0.000E+00 0.000E+00
BIGSUB  14        0    5.10820E+03    82.085    22.074     2.646     1.696    67.180    43.339    45.051     0.000    49.581     0.010     0.029     0.004     0.031     0.010     0.007     0.385     0.001     0.000 .00000E+00 0.000E+00 0.000E+00 0.000E+00 0.000E+00 0.000E+00
BIGSUB  15        0    5.22873E+04    81.692    22.219     2.633     1.688   118.266    43.886    42.049     0.000    46.592     0.059     0.193     0.024     0.038     0.006     0.039     0.103     0.000     0.000 .00000E+00 0.000E+00 0.000E+00 0.000E+00 0.000E+00 0.000E+00
BIGSUB  16        0    5.59806E+03    82.085    21.842     2.655     1.702    67.261    60.830    26.437     0.000    34.094     0.006     0.020     0.002     0.011     0.006     0.005     0.543     0.001     0.000 .00000E+00 0.000E+00 0.000E+00 0.000E+00 0.000E+00 0.000E+00
BIGSUB  17        0    5.39043E+03    79.399    22.106     2.587     1.659   154.760    61.533    25.905     0.000    33.068     0.002     0.006     0.001     0.013     0.006     0.002     0.052     0.000     0.000 .00000E+00 0.000E+00 0.000E+00 0.000E+00 0.000E+00 0.000E+00
BIGSUB  18        0    5.17456E+03    53.000    25.871     2.793     1.884    63.641    43.597    31.934     0.000    36.752     0.021     0.051     0.006     0.025     0.006     0.013     0.055     0.000     0.000 .00000E+00 0.000E+00 0.000E+00 0.000E+00 0.000E+00 0.000E+00
BIGSUB  19        0    5.95467E+03    52.536    25.868     2.776     1.873   105.380    77.692     0.664     0.000    19.798     0.000     0.001     0.000     0.000     0.000     0.000     0.111     0.000     0.000 .00000E+00 0.000E+00 0.000E+00 0.000E+00 0.000E+00 0.000E+00
BIGSUB  20        0    5.54572E+03    82.085    22.268     2.667     1.710   104.650    44.012    44.125     0.000    48.510     0.006     0.019     0.002     0.035     0.010     0.005     0.156     0.001     0.000 .00000E+00 0.000E+00 0.000E+00 0.000E+00 0.000E+00 0.000E+00
BIGSUB  21        0    5.67377E+03    80.281    22.049     2.609     1.673    67.184    43.925    42.190     0.000    46.425     0.002     0.009     0.001     0.030     0.010     0.002     0.176     0.001     0.000 .00000E+00 0.000E+00 0.000E+00 0.000E+00 0.000E+00 0.000E+00
BIGSUB  22        0    5.23228E+03    53.000    25.869     2.797     1.886    63.181    51.615    22.585     0.000    30.100     0.044     0.085     0.011     0.014     0.004     0.023     0.196     0.000     0.000 .00000E+00 0.000E+00 0.000E+00 0.000E+00 0.000E+00 0.000E+00
BIGSUB  23        0    5.17334E+01    53.000    25.567     2.797     1.821   113.898    42.872    31.955     0.000    36.381     0.015     0.030     0.004     0.071     0.006     0.008     0.178     0.000     0.000 .00000E+00 0.000E+00 0.000E+00 0.000E+00 0.000E+00 0.000E+00
BIGSUB  24        0    5.45730E+03    53.000    25.866     2.806     1.892    91.497    73.525     0.551     0.000    20.298     0.004     0.008     0.001     0.000     0.000     0.002     0.452     0.000     0.000 .00000E+00 0.000E+00 0.000E+00 0.000E+00 0.000E+00 0.000E+00
BIGSUB  25        0    5.41071E+03    52.449    25.866     2.780     1.875    67.101    78.544     4.502     0.000    20.155     0.008     0.032     0.004     0.001     0.001     0.007     0.059     0.000     0.000 .00000E+00 0.000E+00 0.000E+00 0.000E+00 0.000E+00 0.000E+00
BIGSUB  26        0    5.57351E+03    88.773    34.043     2.644     1.803    98.119    63.362    51.726     0.000    61.425     0.016     0.055     0.007     0.031     0.010     0.014     0.191     0.000     0.000 .00000E+00 0.000E+00 0.000E+00 0.000E+00 0.000E+00 0.000E+00
BIGSUB  27        0    5.37953E+03    88.773    34.041     2.653     1.810    90.107    53.520    61.236     0.000    68.817     0.018     0.061     0.008     0.041     0.012     0.015     0.099     0.000     0.000 .00000E+00 0.000E+00 0.000E+00 0.000E+00 0.000E+00 0.000E+00
BIGSUB  28        0    5.14018E+04    76.808    22.563     2.496     1.600   154.493    44.439    42.179     0.000    46.677     0.002     0.008     0.001     0.039     0.009     0.002     0.034     0.000     0.000 .00000E+00 0.000E+00 0.000E+00 0.000E+00 0.000E+00 0.000E+00
BIGSUB  29        0    5.18983E+03    53.000    25.865     2.809     1.895    70.271    41.252    31.901     0.000    37.218     0.174     0.380     0.047     0.028     0.004     0.082     0.449     0.001     0.000 .00000E+00 0.000E+00 0.000E+00 0.000E+00 0.000E+00 0.000E+00
BIGSUB  30        0    5.22882E+02    88.773    34.040     2.647     1.805   114.268    50.648    60.674     0.000    68.904     0.280     0.446     0.056     0.056     0.008     0.117     0.817     0.001     0.000 .00000E+00 0.000E+00 0.000E+00 0.000E+00 0.000E+00 0.000E+00
BIGSUB  31        0    5.96917E+03    88.773    34.039     2.660     1.814    91.118    53.563    61.373     0.000    68.922     0.013     0.043     0.005     0.043     0.013     0.011     0.077     0.000     0.000 .00000E+00 0.000E+00 0.000E+00 0.000E+00 0.000E+00 0.000E+00
BIGSUB  32        0    5.46484E+03    87.502    34.038     2.619     1.786    99.297    53.040    61.372     0.000    69.072     0.021     0.066     0.008     0.047     0.011     0.017     0.167     0.000     0.000 .00000E+00 0.000E+00 0.000E+00 0.000E+00 0.000E+00 0.000E+00
BIGSUB  33        0    5.60356E+03    52.175    25.863     2.774     1.870   113.754    41.103    32.439     0.000    37.434     0.048     0.118     0.015     0.038     0.005     0.031     0.560     0.001     0.000 .00000E+00 0.000E+00 0.000E+00 0.000E+00 0.000E+00 0.000E+00
BIGSUB  34        0    5.42227E+03    88.416    34.038     2.644     1.803    97.058    53.137    61.486     0.000    69.170     0.019     0.062     0.008     0.047     0.012     0.015     0.157     0.000     0.000 .00000E+00 0.000E+00 0.000E+00 0.000E+00 0.000E+00 0.000E+00
BIGSUB  35        0    5.50029E+03    87.444    34.036     2.635     1.797    98.759    53.285    61.026     0.000    68.577     0.014     0.042     0.005     0.047     0.012     0.011     0.092     0.000     0.000 .00000E+00 0.000E+00 0.000E+00 0.000E+00 0.000E+00 0.000E+00
BIGSUB  36        0    5.79623E+01    88.773    34.037     2.659     1.813    99.830    53.184    60.678     0.000    68.348     0.015     0.041     0.005     0.047     0.012     0.010     0.113     0.000     0.000 .00000E+00 0.000E+00 0.000E+00 0.000E+00 0.000E+00 0.000E+00
BIGSUB  37        0    5.53324E+03    87.200    34.035     2.626     1.790    92.477    53.331    60.998     0.000    68.553     0.028     0.084     0.010     0.042     0.011     0.021     0.136     0.000     0.000 .00000E+00 0.000E+00 0.000E+00 0.000E+00 0.000E+00 0.000E+00
BIGSUB   1        0    6.35854E+03    72.318     1.972    43.824    43.705   151.795    29.425     0.537     0.000    15.569     0.000     0.002     0.000     0.000     0.000     0.000     0.728     0.002     0.000 .00000E+00 0.000E+00 0.000E+00 0.000E+00 0.000E+00 0.000E+00
BIGSUB   2        0    6.95872E+03    72.897     2.102    44.525    44.430   149.915    17.756    15.204     0.000    20.275     0.009     0.030     0.004     0.008     0.002     0.008     0.239     0.001     0.000 .00000E+00 0.000E+00 0.000E+00 0.000E+00 0.000E+00 0.000E+00
BIGSUB   3        0    6.14997E+04    72.882     1.948    44.194    44.076   151.064    31.265     0.574     0.000    15.898     0.000     0.002     0.000     0.000     0.000     0.000     0.547     0.001     0.000 .00000E+00 0.000E+00 0.000E+00 0.000E+00 0.000E+00 0.000E+00
BIGSUB   4        0    6.96287E+03    73.670     1.985    44.565    44.471   150.029    17.746    15.643     0.000    20.712     0.008     0.029     0.004     0.008     0.002     0.008     0.225     0.001     0.000 .00000E+00 0.000E+00 0.000E+00 0.000E+00 0.000E+00 0.000E+00
BIGSUB   5        0    6.33421E+02    74.079     2.047    44.693    44.575   151.138    31.261     0.035     0.000    15.112     0.000     0.000     0.000     0.000     0.000     0.000     0.568     0.001     0.000 .00000E+00 0.000E+00 0.000E+00 0.000E+00 0.000E+00 0.000E+00
BIGSUB   6        0    6.49426E+03    74.079     2.101    44.814    44.732   150.034    17.829    14.887     0.000    20.015     0.009     0.029     0.004     0.008     0.002     0.008     0.233     0.001     0.000 .00000E+00 0.000E+00 0.000E+00 0.000E+00 0.000E+00 0.000E+00
BIGSUB   7        0    6.59737E+02    74.636     1.314    58.926    58.871    90.995    23.808     0.186     0.000    15.792     0.000     0.001     0.000     0.000     0.000     0.000     0.195     0.000     0.000 .00000E+00 0.000E+00 0.000E+00 0.000E+00 0.000E+00 0.000E+00
BIGSUB   8        0    6.81851E+03    76.886     1.319    60.964    60.827    75.571    14.259     8.907     0.000    14.245     0.015     0.036     0.005     0.005     0.001     0.008     0.137     0.000     0.000 .00000E+00 0.000E+00 0.000E+00 0.000E+00 0.000E+00 0.000E+00
BIGSUB   9        0    6.19056E+03    76.957     1.313    60.854    60.746    52.627    19.934     4.208     0.000    13.450     0.008     0.014     0.002     0.002     0.001     0.004     0.219     0.000     0.000 .00000E+00 0.000E+00 0.000E+00 0.000E+00 0.000E+00 0.000E+00
BIGSUB  10        0    6.14199E+02    74.079     2.144    43.105    42.967   153.566    21.245     8.134     0.000    15.127     0.001     0.007     0.001     0.007     0.002     0.001     0.346     0.002     0.000 .00000E+00 0.000E+00 0.000E+00 0.000E+00 0.000E+00 0.000E+00
BIGSUB  11        0    6.20388E+02    74.079     2.115    44.601    44.499   152.268    23.877     4.137     0.000    15.179     0.002     0.004     0.001     0.003     0.001     0.001     0.568     0.002     0.000 .00000E+00 0.000E+00 0.000E+00 0.000E+00 0.000E+00 0.000E+00
BIGSUB  12        0    6.18155E+03    74.079     1.685    50.463    48.317   130.143    19.777    16.848     0.000    24.235     1.383     1.441     0.259     0.109     0.003     0.241     0.498     0.008     0.000 .00000E+00 0.000E+00 0.000E+00 0.000E+00 0.000E+00 0.000E+00
BIGSUB  13        0    6.26490E+03    74.079     2.068    44.883    44.767   106.258    28.479     1.649     0.000    15.141     0.000     0.001     0.000     0.000     0.000     0.000     0.630     0.001     0.000 .00000E+00 0.000E+00 0.000E+00 0.000E+00 0.000E+00 0.000E+00
BIGSUB  14        0    6.10820E+03    74.079     2.080    44.650    44.473    63.235    18.049    15.289     0.000    20.323     0.003     0.009     0.001     0.008     0.003     0.002     0.474     0.001     0.000 .00000E+00 0.000E+00 0.000E+00 0.000E+00 0.000E+00 0.000E+00
BIGSUB  15        0    6.22873E+04    73.725     2.087    44.562    44.514   112.715    19.836    17.716     0.000    22.670     0.020     0.078     0.010     0.005     0.002     0.016     0.124     0.000     0.000 .00000E+00 0.000E+00 0.000E+00 0.000E+00 0.000E+00 0.000E+00
BIGSUB  16        0    6.59806E+03    74.079     2.029    45.038    44.899    63.436    25.030     9.010     0.000    17.199     0.001     0.008     0.001     0.003     0.002     0.002     0.668     0.001     0.000 .00000E+00 0.000E+00 0.000E+00 0.000E+00 0.000E+00 0.000E+00
BIGSUB  17        0    6.39043E+03    71.655     2.078    44.267    44.116   150.008    24.811     9.714     0.000    17.306     0.000     0.002     0.000     0.003     0.002     0.001     0.060     0.000     0.000 .00000E+00 0.000E+00 0.000E+00 0.000E+00 0.000E+00 0.000E+00
BIGSUB  18        0    6.17456E+03    78.133     1.313    61.881    61.770    51.241    15.693    10.776     0.000    16.032     0.006     0.016     0.002     0.005     0.002     0.004     0.058     0.000     0.000 .00000E+00 0.000E+00 0.000E+00 0.000E+00 0.000E+00 0.000E+00
BIGSUB  19        0    6.95467E+03    77.448     1.312    61.579    61.528    94.697    25.678     0.000     0.000    18.981     0.000     0.000     0.000     0.000     0.000     0.000     0.109     0.000     0.000 .00000E+00 0.000E+00 0.000E+00 0.000E+00 0.000E+00 0.000E+00
BIGSUB  20        0    6.54572E+03    74.079     2.078    45.385    45.242   100.177    18.100    15.660     0.000    20.495     0.002     0.006     0.001     0.008     0.003     0.002     0.191     0.001     0.000 .00000E+00 0.000E+00 0.000E+00 0.000E+00 0.000E+00 0.000E+00
BIGSUB  21        0    6.67377E+03    72.451     2.060    44.423    44.252    62.793    18.271    18.495     0.000    23.202     0.001     0.004     0.000     0.008     0.004     0.001     0.217     0.001     0.000 .00000E+00 0.000E+00 0.000E+00 0.000E+00 0.000E+00 0.000E+00
BIGSUB  22        0    6.23228E+03    78.133     1.313    61.854    61.721    52.398    18.063     5.824     0.000    13.732     0.008     0.018     0.002     0.003     0.001     0.005     0.203     0.000     0.000 .00000E+00 0.000E+00 0.000E+00 0.000E+00 0.000E+00 0.000E+00
BIGSUB  23        0    6.17334E+01    78.133     1.194    62.663    62.412    98.522    14.920    12.554     0.000    17.498     0.004     0.009     0.001     1.066     0.002     0.002     0.190     0.001     0.000 .00000E+00 0.000E+00 0.000E+00 0.000E+00 0.000E+00 0.000E+00
BIGSUB  24        0    6.45730E+03    78.133     1.312    62.168    62.121    81.452    24.312     0.000     0.000    19.559     0.000     0.000     0.000     0.000     0.000     0.000     0.443     0.000     0.000 .00000E+00 0.000E+00 0.000E+00 0.000E+00 0.000E+00 0.000E+00
BIGSUB  25        0    6.41071E+03    77.319     1.311    61.679    61.633    55.476    28.576     0.270     0.000    15.955     0.000     0.001     0.000     0.000     0.000     0.000     0.060     0.000     0.000 .00000E+00 0.000E+00 0.000E+00 0.000E+00 0.000E+00 0.000E+00
BIGSUB  26        0    6.57351E+03   100.934     2.512    38.324    38.300    96.697    31.560    31.084     0.000    41.043     0.011     0.033     0.004     0.007     0.006     0.008     0.216     0.000     0.000 .00000E+00 0.000E+00 0.000E+00 0.000E+00 0.000E+00 0.000E+00
BIGSUB  27        0    6.37953E+03   100.934     2.507    38.660    38.621    87.380    26.576    38.276     0.000    46.116     0.016     0.046     0.006     0.009     0.007     0.011     0.112     0.000     0.000 .00000E+00 0.000E+00 0.000E+00 0.000E+00 0.000E+00 0.000E+00
BIGSUB  28        0    6.14018E+04    69.317     2.100    42.539    42.445   149.855    17.991    17.637     0.000    22.541     0.001     0.003     0.000     0.008     0.004     0.001     0.041     0.000     0.000 .00000E+00 0.000E+00 0.000E+00 0.000E+00 0.000E+00 0.000E+00
BIGSUB  29        0    6.18983E+03    78.133     1.325    62.315    62.020    58.527    14.465     9.784     0.000    15.548     0.046     0.105     0.013     0.005     0.001     0.023     0.478     0.001     0.000 .00000E+00 0.000E+00 0.000E+00 0.000E+00 0.000E+00 0.000E+00
BIGSUB  30        0    6.22882E+02   100.934     2.528    38.247    38.247   113.945    23.774    35.370     0.000    43.962     0.146     0.200     0.025     0.011     0.004     0.053     0.934     0.001     0.000 .00000E+00 0.000E+00 0.000E+00 0.000E+00 0.000E+00 0.000E+00
BIGSUB  31        0    6.96917E+03   100.934     2.504    38.814    38.776    88.458    26.479    37.740     0.000    45.549     0.009     0.025     0.003     0.010     0.008     0.006     0.088     0.000     0.000 .00000E+00 0.000E+00 0.000E+00 0.000E+00 0.000E+00 0.000E+00
BIGSUB  32        0    6.46484E+03    99.488     2.518    37.949    37.925    97.494    25.746    36.799     0.000    44.771     0.016     0.044     0.006     0.010     0.007     0.011     0.190     0.000     0.000 .00000E+00 0.000E+00 0.000E+00 0.000E+00 0.000E+00 0.000E+00
BIGSUB  33        0    6.60356E+03    76.915     1.340    61.551    61.340   102.274    13.528     7.673     0.000    13.143     0.010     0.024     0.003     0.005     0.001     0.006     0.596     0.001     0.000 .00000E+00 0.000E+00 0.000E+00 0.000E+00 0.000E+00 0.000E+00
BIGSUB  34        0    6.42227E+03   100.527     2.517    38.311    38.283    95.045    25.959    36.934     0.000    44.887     0.012     0.037     0.005     0.010     0.007     0.009     0.178     0.000     0.000 .00000E+00 0.000E+00 0.000E+00 0.000E+00 0.000E+00 0.000E+00
BIGSUB  35        0    6.50029E+03    99.422     2.504    38.749    38.724    96.779    25.603    37.116     0.000    44.940     0.011     0.028     0.003     0.010     0.007     0.007     0.104     0.000     0.000 .00000E+00 0.000E+00 0.000E+00 0.000E+00 0.000E+00 0.000E+00
BIGSUB  36        0    6.79623E+01   100.934     2.518    38.517    38.493    98.076    25.758    37.230     0.000    45.166     0.017     0.035     0.004     0.010     0.007     0.009     0.129     0.000     0.000 .00000E+00 0.000E+00 0.000E+00 0.000E+00 0.000E+00 0.000E+00
BIGSUB  37        0    6.53324E+03    99.145     2.497    38.396    38.361    89.906    26.188    38.108     0.000    45.934     0.025     0.061     0.008     0.010     0.007     0.015     0.154     0.000     0.000 .00000E+00 0.000E+00 0.000E+00 0.000E+00 0.000E+00 0.000E+00
BIGSUB   1        0    7.35854E+03   168.380     0.000    85.353    85.249   156.121    37.920    11.240     0.000    27.032     0.015     0.034     0.004     0.001     0.002     0.008     0.642     0.001     0.000 .00000E+00 0.000E+00 0.000E+00 0.000E+00 0.000E+00 0.000E+00
BIGSUB   2        0    7.95872E+03   169.727     0.000    86.665    86.572   154.167     0.184    40.858     0.000    46.543     0.037     0.070     0.009     0.004     0.006     0.019     0.226     0.001     0.000 .00000E+00 0.000E+00 0.000E+00 0.000E+00 0.000E+00 0.000E+00
BIGSUB   3        0    7.14997E+04   169.693     0.000    86.070    85.963   156.359    42.348     5.118     0.000    21.284     0.003     0.008     0.001     0.000     0.001     0.002     0.524     0.001     0.000 .00000E+00 0.000E+00 0.000E+00 0.000E+00 0.000E+00 0.000E+00
BIGSUB   4        0    7.96287E+03   171.528     0.000    86.810    86.744   154.269     0.983    39.547     0.000    45.209     0.034     0.068     0.008     0.004     0.006     0.018     0.213     0.001     0.000 .00000E+00 0.000E+00 0.000E+00 0.000E+00 0.000E+00 0.000E+00
BIGSUB   5        0    7.33421E+02   172.479     0.000    87.083    86.982   156.272    41.510    12.512     0.000    28.463     0.016     0.029     0.004     0.001     0.003     0.008     0.543     0.001     0.000 .00000E+00 0.000E+00 0.000E+00 0.000E+00 0.000E+00 0.000E+00
BIGSUB   6        0    7.49426E+03   172.479     0.000    87.299    87.231   154.294     1.179    42.169     0.000    47.911     0.038     0.073     0.009     0.004     0.007     0.020     0.220     0.001     0.000 .00000E+00 0.000E+00 0.000E+00 0.000E+00 0.000E+00 0.000E+00
BIGSUB   7        0    7.59737E+02   129.041     0.000    92.353    92.315   100.557     2.221     5.313     0.000    21.753     0.006     0.010     0.001     0.000     0.001     0.003     0.184     0.000     0.000 .00000E+00 0.000E+00 0.000E+00 0.000E+00 0.000E+00 0.000E+00
BIGSUB   8        0    7.81851E+03   132.930     0.000    95.490    95.464    75.882     0.000    15.289     0.000    21.262     0.026     0.047     0.006     0.002     0.002     0.011     0.128     0.000     0.000 .00000E+00 0.000E+00 0.000E+00 0.000E+00 0.000E+00 0.000E+00
BIGSUB   9        0    7.19056E+03   133.053     0.000    95.355    95.315    57.399     0.000    11.543     0.000    21.551     0.015     0.022     0.003     0.001     0.002     0.006     0.214     0.000     0.000 .00000E+00 0.000E+00 0.000E+00 0.000E+00 0.000E+00 0.000E+00
BIGSUB  10        0    7.14199E+02   172.479     0.000    86.763    86.677   156.447     7.581    37.770     0.000    45.441     0.011     0.053     0.007     0.006     0.008     0.007     0.285     0.001     0.000 .00000E+00 0.000E+00 0.000E+00 0.000E+00 0.000E+00 0.000E+00
BIGSUB  11        0    7.20388E+02   172.479     0.000    86.920    86.846   155.704    22.611    27.678     0.000    39.432     0.013     0.032     0.004     0.003     0.005     0.007     0.478     0.001     0.000 .00000E+00 0.000E+00 0.000E+00 0.000E+00 0.000E+00 0.000E+00
BIGSUB  12        0    7.18155E+03   172.479     0.000    87.390    85.648   129.429    10.646    37.811     0.000    45.871     1.567     1.652     0.282     5.869     0.005     0.292     0.428     0.007     0.000 .00000E+00 0.000E+00 0.000E+00 0.000E+00 0.000E+00 0.000E+00
BIGSUB  13        0    7.26490E+03   172.479     0.000    87.427    87.315   109.649    31.762    17.751     0.000    32.038     0.005     0.013     0.002     0.001     0.004     0.003     0.537     0.001     0.000 .00000E+00 0.000E+00 0.000E+00 0.000E+00 0.000E+00 0.000E+00
BIGSUB  14        0    7.10820E+03   172.479     0.000    87.008    86.901    66.537     0.000    48.731     0.000    54.326     0.009     0.023     0.003     0.004     0.010     0.005     0.396     0.001     0.000 .00000E+00 0.000E+00 0.000E+00 0.000E+00 0.000E+00 0.000E+00
BIGSUB  15        0    7.22873E+04   171.655     0.000    86.816    86.774   116.855     0.369    32.795     0.000    38.379     0.034     0.084     0.011     0.003     0.004     0.017     0.111     0.000     0.000 .00000E+00 0.000E+00 0.000E+00 0.000E+00 0.000E+00 0.000E+00
BIGSUB  16        0    7.59806E+03   172.479     0.000    87.703    87.580    67.299    10.145    35.196     0.000    44.098     0.008     0.022     0.003     0.003     0.008     0.005     0.569     0.001     0.000 .00000E+00 0.000E+00 0.000E+00 0.000E+00 0.000E+00 0.000E+00
BIGSUB  17        0    7.39043E+03   166.836     0.000    86.090    85.985   154.884     8.885    28.278     0.000    36.685     0.002     0.005     0.001     0.002     0.006     0.001     0.057     0.000     0.000 .00000E+00 0.000E+00 0.000E+00 0.000E+00 0.000E+00 0.000E+00
BIGSUB  18        0    7.17456E+03   135.085     0.000    96.944    96.911    50.971     0.000    17.075     0.000    22.988     0.009     0.018     0.002     0.002     0.003     0.005     0.056     0.000     0.000 .00000E+00 0.000E+00 0.000E+00 0.000E+00 0.000E+00 0.000E+00
BIGSUB  19        0    7.95467E+03   133.902     0.000    96.420    96.379   103.920     6.145     1.651     0.000    21.470     0.000     0.001     0.000     0.000     0.000     0.000     0.106     0.000     0.000 .00000E+00 0.000E+00 0.000E+00 0.000E+00 0.000E+00 0.000E+00
BIGSUB  20        0    7.54572E+03   172.479     0.000    88.325    88.212   103.219     0.000    43.395     0.000    48.844     0.007     0.016     0.002     0.004     0.009     0.004     0.163     0.000     0.000 .00000E+00 0.000E+00 0.000E+00 0.000E+00 0.000E+00 0.000E+00
BIGSUB  21        0    7.67377E+03   168.689     0.000    86.448    86.330    64.898     0.000    36.067     0.000    41.386     0.002     0.005     0.001     0.003     0.008     0.001     0.181     0.000     0.000 .00000E+00 0.000E+00 0.000E+00 0.000E+00 0.000E+00 0.000E+00
BIGSUB  22        0    7.23228E+03   135.085     0.000    96.909    96.868    55.589     0.000    12.751     0.000    21.384     0.009     0.015     0.002     0.001     0.002     0.004     0.198     0.000     0.000 .00000E+00 0.000E+00 0.000E+00 0.000E+00 0.000E+00 0.000E+00
BIGSUB  23        0    7.17334E+01   135.085     0.000    96.583    96.503    97.473     0.000    17.455     0.000    23.055     0.004     0.007     0.001     0.006     0.003     0.002     0.167     0.001     0.000 .00000E+00 0.000E+00 0.000E+00 0.000E+00 0.000E+00 0.000E+00
BIGSUB  24        0    7.45730E+03   135.085     0.000    97.334    97.292    91.159     5.181     1.753     0.000    22.083     0.004     0.009     0.001     0.000     0.000     0.002     0.417     0.000     0.000 .00000E+00 0.000E+00 0.000E+00 0.000E+00 0.000E+00 0.000E+00
BIGSUB  25        0    7.41071E+03   133.679     0.000    96.534    96.481    62.726     7.200     4.572     0.000    21.162     0.001     0.005     0.001     0.000     0.001     0.001     0.059     0.000     0.000 .00000E+00 0.000E+00 0.000E+00 0.000E+00 0.000E+00 0.000E+00
BIGSUB  26        0    7.57351E+03   134.274     0.000    93.073    92.994    87.641     2.177    23.321     0.000    34.120     0.006     0.020     0.002     0.002     0.004     0.005     0.203     0.000     0.000 .00000E+00 0.000E+00 0.000E+00 0.000E+00 0.000E+00 0.000E+00
BIGSUB  27        0    7.37953E+03   134.274     0.000    93.821    93.720    73.990     1.731    26.921     0.000    35.495     0.006     0.019     0.002     0.003     0.005     0.005     0.106     0.000     0.000 .00000E+00 0.000E+00 0.000E+00 0.000E+00 0.000E+00 0.000E+00
BIGSUB  28        0    7.14018E+04   161.392     0.000    82.774    82.672   153.956     0.000    30.172     0.000    35.710     0.002     0.004     0.000     0.003     0.006     0.001     0.038     0.000     0.000 .00000E+00 0.000E+00 0.000E+00 0.000E+00 0.000E+00 0.000E+00
BIGSUB  29        0    7.18983E+03   135.085     0.000    97.533    96.731    58.966     0.000    15.947     0.000    22.285     0.070     0.122     0.015     0.002     0.002     0.027     0.422     0.001     0.000 .00000E+00 0.000E+00 0.000E+00 0.000E+00 0.000E+00 0.000E+00
BIGSUB  30        0    7.22882E+02   134.274     0.000    92.906    92.846   107.507     0.906    21.341     0.000    30.554     0.113     0.134     0.017     0.003     0.003     0.036     0.862     0.001     0.000 .00000E+00 0.000E+00 0.000E+00 0.000E+00 0.000E+00 0.000E+00
BIGSUB  31        0    7.96917E+03   134.274     0.000    94.164    94.063    75.059     1.677    26.768     0.000    35.313     0.004     0.014     0.002     0.003     0.005     0.004     0.082     0.000     0.000 .00000E+00 0.000E+00 0.000E+00 0.000E+00 0.000E+00 0.000E+00
BIGSUB  32        0    7.46484E+03   132.351     0.000    92.134    92.049    86.925     1.445    25.184     0.000    33.873     0.005     0.017     0.002     0.003     0.004     0.004     0.177     0.000     0.000 .00000E+00 0.000E+00 0.000E+00 0.000E+00 0.000E+00 0.000E+00
BIGSUB  33        0    7.60356E+03   132.980     0.000    96.293    96.265   102.190     0.000    13.903     0.000    19.923     0.013     0.030     0.004     0.002     0.002     0.008     0.523     0.001     0.000 .00000E+00 0.000E+00 0.000E+00 0.000E+00 0.000E+00 0.000E+00
BIGSUB  34        0    7.42227E+03   133.734     0.000    93.017    92.932    83.934     1.526    25.792     0.000    34.466     0.007     0.025     0.003     0.003     0.005     0.006     0.167     0.000     0.000 .00000E+00 0.000E+00 0.000E+00 0.000E+00 0.000E+00 0.000E+00
BIGSUB  35        0    7.50029E+03   132.264     0.000    93.898    93.812    84.451     1.352    24.638     0.000    33.189     0.004     0.011     0.001     0.003     0.005     0.003     0.097     0.000     0.000 .00000E+00 0.000E+00 0.000E+00 0.000E+00 0.000E+00 0.000E+00
BIGSUB  36        0    7.79623E+01   134.274     0.000    93.510    93.425    87.681     1.428    24.817     0.000    33.476     0.005     0.012     0.001     0.003     0.005     0.003     0.121     0.000     0.000 .00000E+00 0.000E+00 0.000E+00 0.000E+00 0.000E+00 0.000E+00
BIGSUB  37        0    7.53324E+03   131.894     0.000    93.097    93.000    76.284     1.573    26.377     0.000    34.931     0.007     0.023     0.003     0.003     0.005     0.006     0.145     0.000     0.000 .00000E+00 0.000E+00 0.000E+00 0.000E+00 0.000E+00 0.000E+00
BIGSUB   1        0    8.35854E+03   171.843     0.000    81.560    81.560   155.035    68.464    27.804     0.000    44.366     0.024     0.082     0.010     0.001     0.006     0.018     0.921     0.001     0.000 .00000E+00 0.000E+00 0.000E+00 0.000E+00 0.000E+00 0.000E+00
BIGSUB   2        0    8.95872E+03   173.217     0.000    82.852    82.852   154.171    20.373    84.452     0.000    90.438     0.042     0.131     0.016     0.008     0.013     0.035     0.238     0.000     0.000 .00000E+00 0.000E+00 0.000E+00 0.000E+00 0.000E+00 0.000E+00
BIGSUB   3        0    8.14997E+04   173.183     0.000    82.251    82.251   154.199    72.151    28.821     0.000    45.672     0.011     0.043     0.005     0.001     0.006     0.012     0.669     0.000     0.000 .00000E+00 0.000E+00 0.000E+00 0.000E+00 0.000E+00 0.000E+00
BIGSUB   4        0    8.96287E+03   175.055     0.000    82.963    82.963   154.172    20.613    86.307     0.000    92.263     0.036     0.118     0.015     0.008     0.013     0.032     0.227     0.000     0.000 .00000E+00 0.000E+00 0.000E+00 0.000E+00 0.000E+00 0.000E+00
BIGSUB   5        0    8.33421E+02   176.026     0.000    83.246    83.246   154.201    70.767    24.687     0.000    41.349     0.048     0.088     0.011     0.001     0.005     0.024     0.689     0.001     0.000 .00000E+00 0.000E+00 0.000E+00 0.000E+00 0.000E+00 0.000E+00
BIGSUB   6        0    8.49426E+03   176.026     0.000    83.453    83.453   154.172    20.633    83.887     0.000    89.936     0.041     0.127     0.016     0.007     0.013     0.034     0.234     0.000     0.000 .00000E+00 0.000E+00 0.000E+00 0.000E+00 0.000E+00 0.000E+00
BIGSUB   7        0    8.59737E+02   239.398     0.000    83.669    83.669   109.573    67.744    80.136     0.000    96.628     0.051     0.110     0.014     0.002     0.015     0.027     0.193     0.000     0.000 .00000E+00 0.000E+00 0.000E+00 0.000E+00 0.000E+00 0.000E+00
BIGSUB   8        0    8.81851E+03   246.614     0.000    86.533    86.533    88.763     7.993   134.054     0.000   140.220     0.138     0.284     0.036     0.006     0.018     0.066     0.119     0.000     0.000 .00000E+00 0.000E+00 0.000E+00 0.000E+00 0.000E+00 0.000E+00
BIGSUB   9        0    8.19056E+03   246.841     0.000    86.408    86.408    68.453    27.897   117.821     0.000   127.995     0.169     0.290     0.036     0.004     0.018     0.078     0.215     0.000     0.000 .00000E+00 0.000E+00 0.000E+00 0.000E+00 0.000E+00 0.000E+00
BIGSUB  10        0    8.14199E+02   176.026     0.000    82.939    82.939   156.441    27.813    67.850     0.000    75.929     0.013     0.069     0.008     0.009     0.015     0.009     0.324     0.001     0.000 .00000E+00 0.000E+00 0.000E+00 0.000E+00 0.000E+00 0.000E+00
BIGSUB  11        0    8.20388E+02   176.026     0.000    83.091    83.091   155.646    47.748    46.670     0.000    59.047     0.020     0.073     0.009     0.004     0.009     0.012     0.667     0.001     0.000 .00000E+00 0.000E+00 0.000E+00 0.000E+00 0.000E+00 0.000E+00
BIGSUB  12        0    8.18155E+03   176.026     0.000    83.549    83.549   138.652    25.957    68.825     0.000    77.333     4.576     3.881     0.655     0.440     0.008     0.663     0.504     0.007     0.000 .00000E+00 0.000E+00 0.000E+00 0.000E+00 0.000E+00 0.000E+00
BIGSUB  13        0    8.26490E+03   176.026     0.000    83.604    83.604   109.445    59.919    36.473     0.000    51.477     0.007     0.030     0.004     0.002     0.009     0.005     0.751     0.001     0.000 .00000E+00 0.000E+00 0.000E+00 0.000E+00 0.000E+00 0.000E+00
BIGSUB  14        0    8.10820E+03   176.026     0.000    83.182    83.182    67.082    19.845    80.973     0.000    86.897     0.012     0.036     0.004     0.007     0.017     0.008     0.424     0.001     0.000 .00000E+00 0.000E+00 0.000E+00 0.000E+00 0.000E+00 0.000E+00
BIGSUB  15        0    8.22873E+04   175.185     0.000    82.997    82.997   116.955    20.625    94.646     0.000   100.535     0.052     0.201     0.025     0.006     0.013     0.041     0.115     0.000     0.000 .00000E+00 0.000E+00 0.000E+00 0.000E+00 0.000E+00 0.000E+00
BIGSUB  16        0    8.59806E+03   176.026     0.000    83.869    83.869    67.083    34.277    68.680     0.000    78.130     0.007     0.032     0.004     0.004     0.015     0.007     0.692     0.001     0.000 .00000E+00 0.000E+00 0.000E+00 0.000E+00 0.000E+00 0.000E+00
BIGSUB  17        0    8.39043E+03   170.267     0.000    82.372    82.372   154.183    34.521    73.833     0.000    82.670     0.003     0.012     0.002     0.005     0.016     0.003     0.064     0.000     0.000 .00000E+00 0.000E+00 0.000E+00 0.000E+00 0.000E+00 0.000E+00
BIGSUB  18        0    8.17456E+03   250.612     0.000    87.857    87.857    65.675     6.257   134.211     0.000   140.336     0.042     0.092     0.011     0.005     0.024     0.024     0.054     0.000     0.000 .00000E+00 0.000E+00 0.000E+00 0.000E+00 0.000E+00 0.000E+00
BIGSUB  19        0    8.95467E+03   248.418     0.000    87.418    87.418   126.609    81.514    50.629     0.000    70.400     0.009     0.027     0.003     0.001     0.011     0.007     0.113     0.000     0.000 .00000E+00 0.000E+00 0.000E+00 0.000E+00 0.000E+00 0.000E+00
BIGSUB  20        0    8.54572E+03   176.026     0.000    84.495    84.495   104.455    19.228    83.533     0.000    89.287     0.007     0.024     0.003     0.007     0.018     0.006     0.173     0.000     0.000 .00000E+00 0.000E+00 0.000E+00 0.000E+00 0.000E+00 0.000E+00
BIGSUB  21        0    8.67377E+03   172.158     0.000    82.701    82.701    67.082    18.258    91.837     0.000    97.468     0.002     0.012     0.001     0.007     0.021     0.003     0.192     0.000     0.000 .00000E+00 0.000E+00 0.000E+00 0.000E+00 0.000E+00 0.000E+00
BIGSUB  22        0    8.23228E+03   250.612     0.000    87.836    87.836    67.382    20.411   123.330     0.000   132.140     0.099     0.202     0.025     0.005     0.019     0.054     0.196     0.000     0.000 .00000E+00 0.000E+00 0.000E+00 0.000E+00 0.000E+00 0.000E+00
BIGSUB  23        0    8.17334E+01   250.612     0.000    87.530    87.530   112.835     5.679   133.962     0.000   139.793     0.043     0.080     0.011     0.015     0.024     0.021     0.150     0.001     0.000 .00000E+00 0.000E+00 0.000E+00 0.000E+00 0.000E+00 0.000E+00
BIGSUB  24        0    8.45730E+03   250.612     0.000    88.262    88.262   104.597    90.488    51.521     0.000    71.798     0.099     0.221     0.027     0.001     0.009     0.052     0.449     0.000     0.000 .00000E+00 0.000E+00 0.000E+00 0.000E+00 0.000E+00 0.000E+00
BIGSUB  25        0    8.41071E+03   248.002     0.000    87.554    87.531    88.038    54.149    68.584     0.000    85.268     0.029     0.098     0.012     0.001     0.013     0.023     0.061     0.000     0.000 .00000E+00 0.000E+00 0.000E+00 0.000E+00 0.000E+00 0.000E+00
BIGSUB  26        0    8.57351E+03   301.687     0.000    88.836    88.823    99.236    24.030   161.519     0.000   172.546     0.025     0.072     0.009     0.007     0.030     0.018     0.199     0.000     0.000 .00000E+00 0.000E+00 0.000E+00 0.000E+00 0.000E+00 0.000E+00
BIGSUB  27        0    8.37953E+03   301.687     0.000    89.568    89.550    88.266    10.173   179.319     0.000   188.089     0.029     0.079     0.010     0.007     0.034     0.019     0.102     0.000     0.000 .00000E+00 0.000E+00 0.000E+00 0.000E+00 0.000E+00 0.000E+00
BIGSUB  28        0    8.14018E+04   164.711     0.000    79.185    79.185   154.172    20.384    93.958     0.000    99.788     0.003     0.012     0.002     0.008     0.019     0.003     0.040     0.000     0.000 .00000E+00 0.000E+00 0.000E+00 0.000E+00 0.000E+00 0.000E+00
[...]
BIGSUB   3        0 2015.14997E+04   709.281    61.223   344.302   342.306   138.067   246.523    37.355     0.000   213.193     0.022     0.082     0.010     0.002     0.008     0.022     4.856     0.003     0.000 .00000E+00 0.000E+00 0.000E+00 0.000E+00 0.000E+00 0.000E+00
BIGSUB   4        0 2015.96287E+03   716.949    61.248   347.457   345.204   141.409    48.588   224.663     0.000   282.752     0.172     0.549     0.068     0.073     0.042     0.146     1.551     0.002     0.000 .00000E+00 0.000E+00 0.000E+00 0.000E+00 0.000E+00 0.000E+00
BIGSUB   5        0 2015.33421E+02   720.927    61.099   348.526   346.487   138.679   242.492    43.299     0.000   216.450     0.079     0.182     0.023     0.003     0.010     0.048     4.971     0.003     0.000 .00000E+00 0.000E+00 0.000E+00 0.000E+00 0.000E+00 0.000E+00
BIGSUB   6        0 2015.49426E+03   720.927    60.993   349.679   347.425   141.207    51.623   222.866     0.000   281.721     0.204     0.620     0.077     0.071     0.042     0.165     1.601     0.002     0.000 .00000E+00 0.000E+00 0.000E+00 0.000E+00 0.000E+00 0.000E+00
BIGSUB   7        0 2015.59737E+02   680.344    64.569   338.553   337.337    99.375   225.462    85.209     0.000   255.972     0.105     0.259     0.032     0.016     0.017     0.061     1.635     0.001     0.000 .00000E+00 0.000E+00 0.000E+00 0.000E+00 0.000E+00 0.000E+00
BIGSUB   8        0 2015.81851E+03   700.851    67.129   350.312   348.653    85.530    78.119   217.613     0.000   287.175     0.388     1.107     0.138     0.075     0.036     0.246     1.028     0.001     0.000 .00000E+00 0.000E+00 0.000E+00 0.000E+00 0.000E+00 0.000E+00
BIGSUB   9        0 2015.19056E+03   701.495    66.344   349.779   347.763    63.084   146.391   164.326     0.000   273.266     0.273     0.595     0.074     0.033     0.029     0.158     1.967     0.002     0.000 .00000E+00 0.000E+00 0.000E+00 0.000E+00 0.000E+00 0.000E+00
BIGSUB  10        0 2015.14199E+02   720.927    68.271   347.366   345.557   153.637   101.055   182.091     0.000   263.215     0.037     0.232     0.029     0.086     0.044     0.029     1.734     0.004     0.000 .00000E+00 0.000E+00 0.000E+00 0.000E+00 0.000E+00 0.000E+00
BIGSUB  11        0 2015.20388E+02   720.927    62.945   348.051   345.853   148.071   160.322   120.050     0.000   244.962     0.062     0.196     0.024     0.031     0.026     0.040     3.697     0.005     0.000 .00000E+00 0.000E+00 0.000E+00 0.000E+00 0.000E+00 0.000E+00
BIGSUB  12        0 2015.18155E+03   720.927    59.399   357.016   348.085   123.013    91.670   187.229     0.000   272.514     9.432    14.123     2.244     8.833     0.034     1.949     2.984     0.052     0.000 .00000E+00 0.000E+00 0.000E+00 0.000E+00 0.000E+00 0.000E+00
BIGSUB  13        0 2015.26490E+03   720.927    61.432   350.450   348.229    97.609   212.825    77.986     0.000   232.442     0.019     0.068     0.008     0.008     0.019     0.014     4.105     0.004     0.000 .00000E+00 0.000E+00 0.000E+00 0.000E+00 0.000E+00 0.000E+00
BIGSUB  14        0 2015.10820E+03   720.927    61.042   348.499   346.235    53.485    61.051   226.778     0.000   288.112     0.043     0.140     0.017     0.064     0.053     0.033     2.352     0.004     0.000 .00000E+00 0.000E+00 0.000E+00 0.000E+00 0.000E+00 0.000E+00
BIGSUB  15        0 2015.22873E+04   717.481    60.961   347.580   345.749   100.120    49.390   228.494     0.000   286.295     0.350     1.430     0.179     0.095     0.039     0.290     0.618     0.000     0.000 .00000E+00 0.000E+00 0.000E+00 0.000E+00 0.000E+00 0.000E+00
BIGSUB  16        0 2015.59806E+03   720.927    60.496   351.580   349.403    50.550   124.304   170.218     0.000   269.045     0.033     0.128     0.016     0.027     0.040     0.030     3.854     0.004     0.000 .00000E+00 0.000E+00 0.000E+00 0.000E+00 0.000E+00 0.000E+00
BIGSUB  17        0 2015.39043E+03   697.341    59.416   346.234   343.997   136.505   106.569   166.754     0.000   258.822     0.010     0.038     0.005     0.032     0.038     0.010     0.464     0.000     0.000 .00000E+00 0.000E+00 0.000E+00 0.000E+00 0.000E+00 0.000E+00
BIGSUB  18        0 2015.17456E+03   712.212    64.976   355.661   352.415    58.382    78.039   220.891     0.000   289.996     0.113     0.319     0.040     0.068     0.045     0.079     0.506     0.001     0.000 .00000E+00 0.000E+00 0.000E+00 0.000E+00 0.000E+00 0.000E+00
BIGSUB  19        0 2015.95467E+03   705.976    62.828   354.191   352.634   101.356   251.285    56.469     8.812   265.148     0.020     0.065     0.008     0.005     0.013     0.016     0.973     0.000     0.000 .00000E+00 0.000E+00 0.000E+00 0.000E+00 0.000E+00 0.000E+00
BIGSUB  20        0 2015.54572E+03   720.927    59.891   354.816   352.458    88.819    52.606   223.444     0.000   281.885     0.032     0.105     0.013     0.068     0.052     0.027     0.996     0.002     0.000 .00000E+00 0.000E+00 0.000E+00 0.000E+00 0.000E+00 0.000E+00
BIGSUB  21        0 2015.67377E+03   705.084    59.842   347.318   345.025    50.775    58.309   224.195     0.000   283.864     0.010     0.043     0.005     0.062     0.054     0.010     1.061     0.002     0.000 .00000E+00 0.000E+00 0.000E+00 0.000E+00 0.000E+00 0.000E+00
BIGSUB  22        0 2015.23228E+03   712.212    66.733   355.696   353.547    63.280   127.109   181.370     0.000   276.667     0.276     0.669     0.083     0.042     0.032     0.178     1.811     0.002     0.000 .00000E+00 0.000E+00 0.000E+00 0.000E+00 0.000E+00 0.000E+00
BIGSUB  23        0 2015.17334E+01   712.212    66.439   358.144   354.545   101.406    71.626   230.823     0.000   296.984     0.103     0.234     0.031     4.336     0.043     0.059     1.124     0.003     0.000 .00000E+00 0.000E+00 0.000E+00 0.000E+00 0.000E+00 0.000E+00
BIGSUB  24        0 2015.45730E+03   712.212    63.094   357.728   356.161    89.644   255.431    49.913    18.482   271.667     0.198     0.491     0.061     0.006     0.010     0.115     3.703     0.002     0.000 .00000E+00 0.000E+00 0.000E+00 0.000E+00 0.000E+00 0.000E+00
BIGSUB  25        0 2015.41071E+03   704.796    58.134   354.859   353.182    53.335   232.489    73.622     0.000   249.237     0.055     0.223     0.028     0.012     0.015     0.051     0.573     0.000     0.000 .00000E+00 0.000E+00 0.000E+00 0.000E+00 0.000E+00 0.000E+00
BIGSUB  26        0 2015.57351E+03   914.789   112.707   347.714   346.284    96.214   107.893   326.715     0.000   419.145     0.123     0.418     0.052     0.075     0.069     0.104     1.316     0.001     0.000 .00000E+00 0.000E+00 0.000E+00 0.000E+00 0.000E+00 0.000E+00
BIGSUB  27        0 2015.37953E+03   914.789   111.960   350.983   349.557    86.897    66.226   364.440     0.000   435.090     0.123     0.400     0.049     0.099     0.079     0.097     0.678     0.001     0.000 .00000E+00 0.000E+00 0.000E+00 0.000E+00 0.000E+00 0.000E+00
BIGSUB  28        0 2015.14018E+04   674.584    59.839   332.552   330.333   139.072    44.901   222.032     0.000   278.437     0.011     0.041     0.005     0.070     0.048     0.011     0.269     0.000     0.000 .00000E+00 0.000E+00 0.000E+00 0.000E+00 0.000E+00 0.000E+00
BIGSUB  29        0 2015.18983E+03   712.212    65.996   358.655   353.439    68.226    81.854   216.768     0.000   287.533     0.960     2.495     0.310     0.074     0.033     0.548     2.896     0.003     0.000 .00000E+00 0.000E+00 0.000E+00 0.000E+00 0.000E+00 0.000E+00
BIGSUB  30        0 2015.22882E+02   914.789   112.607   347.184   345.788   114.919    53.121   369.233     0.000   438.776     2.136     3.685     0.459     0.132     0.055     0.981     4.676     0.005     0.000 .00000E+00 0.000E+00 0.000E+00 0.000E+00 0.000E+00 0.000E+00
BIGSUB  31        0 2015.96917E+03   914.789   111.486   352.578   351.130    88.071    59.143   368.062     0.000   437.044     0.086     0.274     0.034     0.110     0.082     0.068     0.492     0.001     0.000 .00000E+00 0.000E+00 0.000E+00 0.000E+00 0.000E+00 0.000E+00
BIGSUB  32        0 2015.46484E+03   901.686   111.899   344.755   343.337    97.622    59.033   368.383     0.000   437.494     0.140     0.458     0.057     0.117     0.075     0.116     1.006     0.001     0.000 .00000E+00 0.000E+00 0.000E+00 0.000E+00 0.000E+00 0.000E+00
BIGSUB  33        0 2015.60356E+03   701.115    68.127   354.110   353.117   111.753    73.897   215.556     0.000   284.981     0.333     0.980     0.122     0.070     0.035     0.260     3.520     0.004     0.000 .00000E+00 0.000E+00 0.000E+00 0.000E+00 0.000E+00 0.000E+00
BIGSUB  34        0 2015.42227E+03   911.104   112.044   347.966   346.533    95.067    59.958   368.934     0.000   438.248     0.126     0.429     0.053     0.116     0.077     0.107     0.962     0.001     0.000 .00000E+00 0.000E+00 0.000E+00 0.000E+00 0.000E+00 0.000E+00
BIGSUB  35        0 2015.50029E+03   901.089   110.240   352.332   350.889    96.341    52.670   364.491     0.000   432.005     0.107     0.298     0.037     0.117     0.078     0.075     0.554     0.001     0.000 .00000E+00 0.000E+00 0.000E+00 0.000E+00 0.000E+00 0.000E+00
BIGSUB  36        0 2015.79623E+01   914.789   111.793   349.981   348.540    98.226    59.154   368.007     0.000   436.977     0.122     0.307     0.038     0.120     0.080     0.077     0.700     0.001     0.000 .00000E+00 0.000E+00 0.000E+00 0.000E+00 0.000E+00 0.000E+00
BIGSUB  37        0 2015.53324E+03   898.573   110.578   349.171   347.737    89.285    55.988   366.372     0.000   434.832     0.207     0.591     0.073     0.109     0.074     0.145     0.865     0.001     0.000 .00000E+00 0.000E+00 0.000E+00 0.000E+00 0.000E+00 0.000E+00
BIGSUB   1        0  5.0.35854E+03   710.204    78.146   330.223   327.943   142.818   297.155    75.228     0.000   268.331     0.070     0.235     0.029     0.008     0.016     0.053     7.198     0.008     0.000 .00000E+00 0.000E+00 0.000E+00 0.000E+00 0.000E+00 0.000E+00
BIGSUB   2        0  5.0.95872E+03   715.883    78.769   335.952   333.761   139.897   102.921   273.048     0.000   339.398     0.226     0.655     0.082     0.100     0.046     0.174     2.021     0.003     0.000 .00000E+00 0.000E+00 0.000E+00 0.000E+00 0.000E+00 0.000E+00
BIGSUB   3        0  5.0.14997E+04   715.742    75.926   333.069   330.939   138.067   308.340    65.710     0.000   264.195     0.039     0.145     0.018     0.005     0.015     0.039     5.932     0.004     0.000 .00000E+00 0.000E+00 0.000E+00 0.000E+00 0.000E+00 0.000E+00
BIGSUB   4        0  5.0.96287E+03   723.479    77.868   335.990   333.876   141.409   103.772   273.919     0.000   340.633     0.203     0.611     0.076     0.100     0.047     0.162     1.945     0.003     0.000 .00000E+00 0.000E+00 0.000E+00 0.000E+00 0.000E+00 0.000E+00
BIGSUB   5        0  5.0.33421E+02   727.494    76.850   337.225   335.107   138.679   304.196    71.753     0.000   267.275     0.137     0.300     0.037     0.006     0.016     0.080     6.071     0.004     0.000 .00000E+00 0.000E+00 0.000E+00 0.000E+00 0.000E+00 0.000E+00
BIGSUB   6        0  5.0.49426E+03   727.494    79.081   338.169   336.051   141.207   105.281   273.507     0.000   340.885     0.228     0.653     0.081     0.100     0.048     0.174     1.990     0.003     0.000 .00000E+00 0.000E+00 0.000E+00 0.000E+00 0.000E+00 0.000E+00
BIGSUB   7        0  5.0.59737E+02   743.073    92.825   321.977   320.507    99.375   294.031   139.007     0.000   328.134     0.189     0.442     0.055     0.016     0.027     0.104     1.989     0.001     0.000 .00000E+00 0.000E+00 0.000E+00 0.000E+00 0.000E+00 0.000E+00
BIGSUB   8        0  5.0.81851E+03   765.471    93.799   333.229   331.530    85.530   118.055   314.305     0.000   386.497     0.583     1.476     0.185     0.093     0.048     0.332     1.198     0.001     0.000 .00000E+00 0.000E+00 0.000E+00 0.000E+00 0.000E+00 0.000E+00
BIGSUB   9        0  5.0.19056E+03   766.175    93.603   332.668   330.533    63.084   184.938   247.519     0.000   363.890     0.461     0.899     0.112     0.043     0.041     0.240     2.220     0.002     0.000 .00000E+00 0.000E+00 0.000E+00 0.000E+00 0.000E+00 0.000E+00
BIGSUB  10        0  5.0.14199E+02   727.494    87.262   335.672   333.314   153.637   143.825   236.072     0.000   326.061     0.047     0.283     0.035     0.119     0.055     0.035     2.218     0.006     0.000 .00000E+00 0.000E+00 0.000E+00 0.000E+00 0.000E+00 0.000E+00
BIGSUB  11        0  5.0.20388E+02   727.494    82.440   336.623   334.263   148.071   219.372   157.653     0.000   298.943     0.069     0.235     0.029     0.048     0.034     0.044     4.731     0.008     0.000 .00000E+00 0.000E+00 0.000E+00 0.000E+00 0.000E+00 0.000E+00
BIGSUB  12        0  5.0.18155E+03   727.494    73.552   343.919   334.385   123.013   149.199   229.974     0.000   325.865    10.689    13.721     2.259     8.060     0.039     1.983     3.785     0.051     0.000 .00000E+00 0.000E+00 0.000E+00 0.000E+00 0.000E+00 0.000E+00
BIGSUB  13        0  5.0.26490E+03   727.494    79.613   339.144   334.877    97.609   270.640   105.896     0.000   279.092     0.023     0.093     0.011     0.014     0.025     0.018     5.146     0.006     0.000 .00000E+00 0.000E+00 0.000E+00 0.000E+00 0.000E+00 0.000E+00
BIGSUB  14        0  5.0.10820E+03   727.494    77.605   337.058   331.279    53.485   106.095   276.307     0.000   343.240     0.053     0.169     0.021     0.082     0.062     0.040     2.918     0.005     0.000 .00000E+00 0.000E+00 0.000E+00 0.000E+00 0.000E+00 0.000E+00
BIGSUB  15        0  5.0.22873E+04   724.016    77.181   336.309   333.407   100.120   105.232   276.041     0.000   342.288     0.351     1.347     0.169     0.097     0.043     0.273     0.874     0.001     0.000 .00000E+00 0.000E+00 0.000E+00 0.000E+00 0.000E+00 0.000E+00
BIGSUB  16        0  5.0.59806E+03   727.494    76.676   340.381   334.515    50.550   169.748   208.127     0.000   315.592     0.038     0.145     0.018     0.038     0.048     0.034     4.689     0.005     0.000 .00000E+00 0.000E+00 0.000E+00 0.000E+00 0.000E+00 0.000E+00
BIGSUB  17        0  5.0.39043E+03   703.693    76.852   335.031   332.709   136.505   166.000   206.992     0.000   309.381     0.013     0.047     0.006     0.045     0.046     0.013     0.557     0.001     0.000 .00000E+00 0.000E+00 0.000E+00 0.000E+00 0.000E+00 0.000E+00
BIGSUB  18        0  5.0.17456E+03   777.880    93.034   338.342   335.802    58.382   117.474   316.912     0.000   388.363     0.171     0.446     0.056     0.082     0.060     0.112     0.563     0.001     0.000 .00000E+00 0.000E+00 0.000E+00 0.000E+00 0.000E+00 0.000E+00
BIGSUB  19        0  5.0.95467E+03   771.069    92.186   336.895   335.092   101.356   348.248    83.561     1.762   312.367     0.034     0.104     0.013     0.006     0.019     0.026     1.192     0.001     0.000 .00000E+00 0.000E+00 0.000E+00 0.000E+00 0.000E+00 0.000E+00
BIGSUB  20        0  5.0.54572E+03   727.494    77.518   343.268   338.636    88.819   104.266   273.036     0.000   338.150     0.039     0.121     0.015     0.090     0.061     0.031     1.247     0.002     0.000 .00000E+00 0.000E+00 0.000E+00 0.000E+00 0.000E+00 0.000E+00
BIGSUB  21        0  5.0.67377E+03   711.507    76.909   336.105   329.828    50.775   104.999   273.592     0.000   338.227     0.012     0.051     0.006     0.080     0.064     0.012     1.322     0.002     0.000 .00000E+00 0.000E+00 0.000E+00 0.000E+00 0.000E+00 0.000E+00
BIGSUB  22        0  5.0.23228E+03   777.880    93.761   338.313   336.153    63.280   161.333   270.743     0.000   371.521     0.411     0.915     0.114     0.056     0.045     0.244     2.024     0.002     0.000 .00000E+00 0.000E+00 0.000E+00 0.000E+00 0.000E+00 0.000E+00
BIGSUB  23        0  5.0.17334E+01   777.880    94.255   339.623   337.659   101.406   112.757   320.440     0.000   388.851     0.145     0.308     0.041     4.602     0.059     0.079     1.404     0.003     0.000 .00000E+00 0.000E+00 0.000E+00 0.000E+00 0.000E+00 0.000E+00
BIGSUB  24        0  5.0.45730E+03   777.880    92.328   340.274   338.437    89.644   348.726    79.487     3.696   314.541     0.367     0.881     0.110     0.006     0.015     0.202     4.668     0.002     0.000 .00000E+00 0.000E+00 0.000E+00 0.000E+00 0.000E+00 0.000E+00
BIGSUB  25        0  5.0.41071E+03   769.780    90.486   337.550   334.840    53.335   301.760   130.453     0.000   322.863     0.116     0.461     0.057     0.010     0.026     0.106     0.654     0.000     0.000 .00000E+00 0.000E+00 0.000E+00 0.000E+00 0.000E+00 0.000E+00
BIGSUB  26        0  5.0.57351E+03   889.758   123.560   335.544   330.304    96.214   172.380   366.282     0.000   481.522     0.109     0.359     0.045     0.082     0.074     0.090     1.701     0.001     0.000 .00000E+00 0.000E+00 0.000E+00 0.000E+00 0.000E+00 0.000E+00
BIGSUB  27        0  5.0.37953E+03   889.758   123.105   338.721   331.993    86.897   133.065   404.574     0.000   494.601     0.118     0.370     0.046     0.104     0.083     0.090     0.890     0.001     0.000 .00000E+00 0.000E+00 0.000E+00 0.000E+00 0.000E+00 0.000E+00
BIGSUB  28        0  5.0.14018E+04   680.729    78.250   321.601   319.436   139.072   103.677   271.886     0.000   337.065     0.013     0.050     0.006     0.096     0.058     0.013     0.342     0.000     0.000 .00000E+00 0.000E+00 0.000E+00 0.000E+00 0.000E+00 0.000E+00
BIGSUB  29        0  5.0.18983E+03   777.880    93.271   341.365   337.782    68.226   116.107   313.384     0.000   387.029     1.391     3.244     0.403     0.092     0.044     0.714     3.530     0.004     0.000 .00000E+00 0.000E+00 0.000E+00 0.000E+00 0.000E+00 0.000E+00
BIGSUB  30        0  5.0.22882E+02   889.758   124.909   335.056   331.021   114.919   128.020   404.740     0.000   498.469     2.056     3.209     0.401     0.129     0.056     0.852     6.732     0.006     0.000 .00000E+00 0.000E+00 0.000E+00 0.000E+00 0.000E+00 0.000E+00
BIGSUB  31        0  5.0.96917E+03   889.758   123.101   340.285   333.353    88.071   131.528   404.874     0.000   494.294     0.087     0.261     0.032     0.107     0.086     0.065     0.673     0.001     0.000 .00000E+00 0.000E+00 0.000E+00 0.000E+00 0.000E+00 0.000E+00
BIGSUB  32        0  5.0.46484E+03   877.014   123.795   332.744   327.060    97.622   132.048   405.070     0.000   495.650     0.136     0.424     0.053     0.114     0.077     0.107     1.414     0.001     0.000 .00000E+00 0.000E+00 0.000E+00 0.000E+00 0.000E+00 0.000E+00
BIGSUB  33        0  5.0.60356E+03   765.760    91.430   337.009   335.658   111.753   114.232   310.960     0.000   383.750     0.485     1.324     0.165     0.102     0.047     0.352     4.418     0.005     0.000 .00000E+00 0.000E+00 0.000E+00 0.000E+00 0.000E+00 0.000E+00
BIGSUB  34        0  5.0.42227E+03   886.174   123.659   335.834   329.879    95.067   132.233   405.564     0.000   496.095     0.122     0.400     0.050     0.113     0.079     0.100     1.341     0.001     0.000 .00000E+00 0.000E+00 0.000E+00 0.000E+00 0.000E+00 0.000E+00
BIGSUB  35        0  5.0.50029E+03   876.433   123.442   340.092   333.674    96.341   129.470   401.541     0.000   490.371     0.105     0.279     0.035     0.114     0.082     0.071     0.774     0.001     0.000 .00000E+00 0.000E+00 0.000E+00 0.000E+00 0.000E+00 0.000E+00
BIGSUB  36        0  5.0.79623E+01   889.758   123.834   337.796   332.080    98.226   132.423   404.839     0.000   495.240     0.123     0.284     0.035     0.117     0.084     0.071     0.973     0.001     0.000 .00000E+00 0.000E+00 0.000E+00 0.000E+00 0.000E+00 0.000E+00
BIGSUB  37        0  5.0.53324E+03   873.986   122.996   337.045   330.117    89.285   129.878   403.425     0.000   492.543     0.206     0.552     0.068     0.106     0.076     0.136     1.186     0.001     0.000 .00000E+00 0.000E+00 0.000E+00 0.000E+00 0.000E+00 0.000E+00
