1
    SWAT Dec 23 2016    VER 2016/Rev 664                                                                 0/ 0/   0      0: 0: 0

    General Input/Output section (file.cio):                                        
    2023/9/29 0:00:00 ARCGIS-SWAT interface AV                                      
                                                                                    


       RCH      GIS   MON     AREAkm2  FLOW_INcms FLOW_OUTcms     EVAPcms    TLOSScms  SED_INtons SED_OUTtons SEDCONCmg/L   ORGN_INkg  ORGN_OUTkg   ORGP_INkg  ORGP_OUTkg    NO3_INkg   NO3_OUTkg    NH4_INkg   NH4_OUTkg    NO2_INkg   NO2_OUTkg   MINP_INkg  MINP_OUTkg   CHLA_INkg  CHLA_OUTkg   CBOD_INkg  CBOD_OUTkg  DISOX_INkg DISOX_OUTkg SOLPST_INmgSOLPST_OUTmg SORPST_INmgSORPST_OUTmg  REACTPSTmg    VOLPSTmg  SETTLPSTmgRESUSP_PSTmgDIFFUSEPSTmgREACBEDPSTmg   BURYPSTmg   BED_PSTmg BACTP_OUTctBACTLP_OUTct  CMETAL#1kg  CMETAL#2kg  CMETAL#3kg     TOT Nkg     TOT Pkg NO3ConcMg/l    WTMPdegc
REACH    1        0     1  0.3585E+03  0.2253E+01  0.2253E+01  0.0000E+00  0.9231E-01  0.9595E-07  0.9595E-07  0.1590E-07  0.8263E-03  0.0000E+00  0.2479E-02  0.0000E+00  0.1153E+02  0.1153E+02  0.0000E+00  0.1136E+00  0.0000E+00  0.0000E+00  0.8274E-03  0.0000E+00  0.1286E-15  0.0000E+00  0.0000E+00  0.0000E+00  0.8703E+05  0.8742E+05  0.0000E+00  0.0000E+00  0.0000E+00  0.0000E+00  0.0000E+00  0.0000E+00  0.0000E+00  0.0000E+00  0.0000E+00  0.0000E+00  0.0000E+00  0.0000E+00  0.0000E+00  0.0000E+00  0.0000E+00  0.0000E+00  0.0000E+00  0.1164E+02  0.0000E+00  0.0000E+00  0.0000E+00
REACH    2        0     1  0.9587E+03  0.1775E+01  0.1795E+01  0.0000E+00  0.1775E+01  0.3384E-07  0.3384E-07  0.7038E-08  0.1614E-02  0.0000E+00  0.4843E-02  0.0000E+00  0.2054E+02  0.2077E+02  0.0000E+00  0.2450E+01  0.0000E+00  0.0000E+00  0.1617E-02  0.0000E+00  0.1502E-14  0.0000E+00  0.0000E+00  0.0000E+00  0.6913E+05  0.6966E+05  0.0000E+00  0.0000E+00  0.0000E+00  0.0000E+00  0.0000E+00  0.0000E+00  0.0000E+00  0.0000E+00  0.0000E+00  0.0000E+00  0.0000E+00  0.0000E+00  0.0000E+00  0.0000E+00  0.0000E+00  0.0000E+00  0.0000E+00  0.2322E+02  0.0000E+00  0.0000E+00  0.0000E+00
REACH    3        0     1  0.1500E+04  0.9726E+01  0.9783E+01  0.0000E+00  0.9726E+01  0.2152E-07  0.2152E-07  0.8213E-09  0.1730E-02  0.0000E+00  0.4777E-02  0.0000E+00  0.3391E+02  0.3410E+02  0.0000E+00  0.5118E+01  0.0000E+00  0.0000E+00  0.1597E-02  0.0000E+00  0.1099E-15  0.0000E+00  0.0000E+00  0.0000E+00  0.3787E+06  0.3796E+06  0.0000E+00  0.0000E+00  0.0000E+00  0.0000E+00  0.0000E+00  0.0000E+00  0.0000E+00  0.0000E+00  0.0000E+00  0.0000E+00  0.0000E+00  0.0000E+00  0.0000E+00  0.0000E+00  0.0000E+00  0.0000E+00  0.0000E+00  0.3922E+02  0.0000E+00  0.0000E+00  0.0000E+00
REACH    4        0     1  0.2280E+04  0.5858E+01  0.5930E+01  0.0000E+00  0.5858E+01  0.1609E-06  0.2013E+03  0.1268E+02  0.1507E-02  0.0000E+00  0.4521E-02  0.0000E+00  0.5219E+02  0.5283E+02  0.2563E+01  0.7398E+01  0.0000E+00  0.2919E+00  0.1510E-02  0.0000E+00  0.1148E-14  0.0000E+00  0.0000E+00  0.0000E+00  0.2283E+06  0.2301E+06  0.0000E+00  0.0000E+00  0.0000E+00  0.0000E+00  0.0000E+00  0.0000E+00  0.0000E+00  0.0000E+00  0.0000E+00  0.0000E+00  0.0000E+00  0.0000E+00  0.0000E+00  0.0000E+00  0.0000E+00  0.0000E+00  0.0000E+00  0.6052E+02  0.0000E+00  0.0000E+00  0.0000E+00
REACH    5        0     1  0.8507E+04  0.2689E+02  0.2689E+02  0.0000E+00  0.8457E+00  0.1100E+04  0.1270E+04  0.1763E+02  0.1017E-03  0.0000E+00  0.3050E-03  0.0000E+00  0.1650E+03  0.1652E+03  0.5199E+02  0.5266E+02  0.7346E+01  0.7523E+01  0.1018E-03  0.0000E+00  0.2552E-16  0.0000E+00  0.0000E+00  0.0000E+00  0.1043E+07  0.1043E+07  0.0000E+00  0.0000E+00  0.0000E+00  0.0000E+00  0.0000E+00  0.0000E+00  0.0000E+00  0.0000E+00  0.0000E+00  0.0000E+00  0.0000E+00  0.0000E+00  0.0000E+00  0.0000E+00  0.0000E+00  0.0000E+00  0.0000E+00  0.2254E+03  0.0000E+00  0.0000E+00  0.0000E+00
REACH    6        0     1  0.4274E+04  0.1664E+02  0.1664E+02  0.0000E+00  0.1040E+02  0.2013E+03  0.5851E+03  0.1312E+02  0.9060E-03  0.0000E+00  0.2718E-02  0.0000E+00  0.9669E+02  0.9683E+02  0.1252E+02  0.1880E+02  0.2919E+00  0.8758E+00  0.9075E-03  0.0000E+00  0.9339E-15  0.0000E+00  0.0000E+00  0.0000E+00  0.6465E+06  0.6458E+06  0.0000E+00  0.0000E+00  0.0000E+00  0.0000E+00  0.0000E+00  0.0000E+00  0.0000E+00  0.0000E+00  0.0000E+00  0.0000E+00  0.0000E+00  0.0000E+00  0.0000E+00  0.0000E+00  0.0000E+00  0.0000E+00  0.0000E+00  0.1165E+03  0.0000E+00  0.0000E+00  0.0000E+00
REACH    7        0     1  0.1876E+05  0.6366E+02  0.6366E+02  0.0000E+00  0.1249E+02  0.2257E+04  0.2257E+04  0.1324E+02  0.1612E-03  0.0000E+00  0.4837E-03  0.0000E+00  0.2711E+03  0.2769E+03  0.1181E+03  0.1253E+03  0.2035E+02  0.2313E+02  0.1614E-03  0.0000E+00  0.3492E-16  0.0000E+00  0.0000E+00  0.0000E+00  0.2470E+07  0.2470E+07  0.0000E+00  0.0000E+00  0.0000E+00  0.0000E+00  0.0000E+00  0.0000E+00  0.0000E+00  0.0000E+00  0.0000E+00  0.0000E+00  0.0000E+00  0.0000E+00  0.0000E+00  0.0000E+00  0.0000E+00  0.0000E+00  0.0000E+00  0.4254E+03  0.0000E+00  0.0000E+00  0.0000E+00
REACH    8        0     1  0.8185E+03  0.1533E+01  0.1597E+01  0.0000E+00  0.1533E+01  0.9585E-07  0.9585E-07  0.2244E-07  0.1932E-02  0.0000E+00  0.5797E-02  0.5004E-02  0.1130E+02  0.1179E+02  0.0000E+00  0.1151E+01  0.0000E+00  0.0000E+00  0.1935E-02  0.0000E+00  0.3517E-14  0.0000E+00  0.0000E+00  0.0000E+00  0.5969E+05  0.6197E+05  0.0000E+00  0.0000E+00  0.0000E+00  0.0000E+00  0.0000E+00  0.0000E+00  0.0000E+00  0.0000E+00  0.0000E+00  0.0000E+00  0.0000E+00  0.0000E+00  0.0000E+00  0.0000E+00  0.0000E+00  0.0000E+00  0.0000E+00  0.1295E+02  0.5004E-02  0.0000E+00  0.0000E+00
REACH    9        0     1  0.7907E+04  0.3177E+02  0.3177E+02  0.0000E+00  0.2783E+01  0.1251E+04  0.1342E+04  0.1577E+02  0.5355E-03  0.0000E+00  0.6610E-02  0.0000E+00  0.9641E+02  0.9750E+02  0.5752E+02  0.5934E+02  0.9480E+01  0.1008E+02  0.5361E-03  0.0000E+00  0.3697E-15  0.0000E+00  0.0000E+00  0.0000E+00  0.1233E+07  0.1233E+07  0.0000E+00  0.0000E+00  0.0000E+00  0.0000E+00  0.0000E+00  0.0000E+00  0.0000E+00  0.0000E+00  0.0000E+00  0.0000E+00  0.0000E+00  0.0000E+00  0.0000E+00  0.0000E+00  0.0000E+00  0.0000E+00  0.0000E+00  0.1669E+03  0.0000E+00  0.0000E+00  0.0000E+00
REACH   10        0     1  0.7875E+04  0.2484E+02  0.2484E+02  0.0000E+00  0.7194E+01  0.6507E+03  0.1100E+04  0.1654E+02  0.4185E-04  0.0000E+00  0.1256E-03  0.0000E+00  0.1523E+03  0.1540E+03  0.4336E+02  0.4930E+02  0.5868E+01  0.7346E+01  0.4190E-04  0.0000E+00  0.5791E-16  0.0000E+00  0.0000E+00  0.0000E+00  0.9640E+06  0.9640E+06  0.0000E+00  0.0000E+00  0.0000E+00  0.0000E+00  0.0000E+00  0.0000E+00  0.0000E+00  0.0000E+00  0.0000E+00  0.0000E+00  0.0000E+00  0.0000E+00  0.0000E+00  0.0000E+00  0.0000E+00  0.0000E+00  0.0000E+00  0.2106E+03  0.0000E+00  0.0000E+00  0.0000E+00
REACH   11        0     1  0.7315E+04  0.2385E+02  0.2385E+02  0.0000E+00  0.6957E+01  0.8663E+03  0.6507E+03  0.1019E+02  0.6008E-04  0.0000E+00  0.1802E-03  0.0000E+00  0.1464E+03  0.1477E+03  0.3705E+02  0.4120E+02  0.3038E+01  0.5868E+01  0.6014E-04  0.0000E+00  0.7318E-16  0.0000E+00  0.0000E+00  0.0000E+00  0.9255E+06  0.9255E+06  0.0000E+00  0.0000E+00  0.0000E+00  0.0000E+00  0.0000E+00  0.0000E+00  0.0000E+00  0.0000E+00  0.0000E+00  0.0000E+00  0.0000E+00  0.0000E+00  0.0000E+00  0.0000E+00  0.0000E+00  0.0000E+00  0.0000E+00  0.1948E+03  0.0000E+00  0.0000E+00  0.0000E+00
REACH   12        0     1  0.2522E+04  0.5660E+01  0.5661E+01  0.0000E+00  0.3145E+01  0.1211E+03  0.8576E+02  0.5656E+01  0.5404E-03  0.0000E+00  0.1621E-02  0.0000E+00  0.4453E+02  0.4473E+02  0.9551E+01  0.1088E+02  0.4375E+00  0.1312E+01  0.5409E-03  0.0000E+00  0.2781E-14  0.0000E+00  0.0000E+00  0.0000E+00  0.2200E+06  0.2197E+06  0.0000E+00  0.0000E+00  0.0000E+00  0.0000E+00  0.0000E+00  0.0000E+00  0.0000E+00  0.0000E+00  0.0000E+00  0.0000E+00  0.0000E+00  0.0000E+00  0.0000E+00  0.0000E+00  0.0000E+00  0.0000E+00  0.0000E+00  0.5692E+02  0.0000E+00  0.0000E+00  0.0000E+00
REACH   13        0     1  0.1667E+04  0.4037E+01  0.4037E+01  0.0000E+00  0.2525E+01  0.1046E-06  0.1211E+03  0.1120E+02  0.6326E-03  0.0000E+00  0.1898E-02  0.0000E+00  0.1021E+02  0.1021E+02  0.4491E+01  0.7229E+01  0.0000E+00  0.4375E+00  0.6335E-03  0.0000E+00  0.1477E-15  0.0000E+00  0.0000E+00  0.0000E+00  0.1577E+06  0.1566E+06  0.0000E+00  0.0000E+00  0.0000E+00  0.0000E+00  0.0000E+00  0.0000E+00  0.0000E+00  0.0000E+00  0.0000E+00  0.0000E+00  0.0000E+00  0.0000E+00  0.0000E+00  0.0000E+00  0.0000E+00  0.0000E+00  0.0000E+00  0.1788E+02  0.0000E+00  0.0000E+00  0.0000E+00
REACH   14        0     1  0.3021E+04  0.7003E+01  0.7115E+01  0.0000E+00  0.7003E+01  0.8576E+02  0.2812E+03  0.1476E+02  0.2393E-03  0.0000E+00  0.7178E-03  0.0000E+00  0.4760E+02  0.4898E+02  0.1240E+02  0.1825E+02  0.1312E+01  0.2162E+01  0.2396E-03  0.0000E+00  0.4462E-15  0.0000E+00  0.0000E+00  0.0000E+00  0.2719E+06  0.2761E+06  0.0000E+00  0.0000E+00  0.0000E+00  0.0000E+00  0.0000E+00  0.0000E+00  0.0000E+00  0.0000E+00  0.0000E+00  0.0000E+00  0.0000E+00  0.0000E+00  0.0000E+00  0.0000E+00  0.0000E+00  0.0000E+00  0.0000E+00  0.6939E+02  0.0000E+00  0.0000E+00  0.0000E+00
REACH   15        0     1  0.1079E+05  0.3107E+02  0.3151E+02  0.0000E+00  0.3107E+02  0.1270E+04  0.9153E+03  0.1085E+02  0.5538E-02  0.0000E+00  0.6992E-02  0.0000E+00  0.1674E+03  0.1731E+03  0.5266E+02  0.5876E+02  0.7523E+01  0.1027E+02  0.2525E-02  0.0000E+00  0.5821E-11  0.0000E+00  0.0000E+00  0.0000E+00  0.1208E+07  0.1223E+07  0.0000E+00  0.0000E+00  0.0000E+00  0.0000E+00  0.0000E+00  0.0000E+00  0.0000E+00  0.0000E+00  0.0000E+00  0.0000E+00  0.0000E+00  0.0000E+00  0.0000E+00  0.0000E+00  0.0000E+00  0.0000E+00  0.0000E+00  0.2422E+03  0.0000E+00  0.0000E+00  0.0000E+00
REACH   16        0     1  0.5981E+03  0.1816E+01  0.1833E+01  0.0000E+00  0.1816E+01  0.3546E-07  0.3546E-07  0.7225E-08  0.1063E-02  0.0000E+00  0.3188E-02  0.0000E+00  0.1014E+02  0.1023E+02  0.0000E+00  0.2691E+01  0.0000E+00  0.0000E+00  0.1064E-02  0.0000E+00  0.4022E-15  0.0000E+00  0.0000E+00  0.0000E+00  0.7186E+05  0.7111E+05  0.0000E+00  0.0000E+00  0.0000E+00  0.0000E+00  0.0000E+00  0.0000E+00  0.0000E+00  0.0000E+00  0.0000E+00  0.0000E+00  0.0000E+00  0.0000E+00  0.0000E+00  0.0000E+00  0.0000E+00  0.0000E+00  0.0000E+00  0.1292E+02  0.0000E+00  0.0000E+00  0.0000E+00
REACH   17        0     1  0.3904E+03  0.1149E+01  0.1156E+01  0.0000E+00  0.1149E+01  0.1189E-07  0.1189E-07  0.3838E-08  0.4549E-03  0.0000E+00  0.1365E-02  0.0000E+00  0.1316E+01  0.1324E+01  0.0000E+00  0.1515E+01  0.0000E+00  0.0000E+00  0.4561E-03  0.0000E+00  0.8784E-16  0.0000E+00  0.0000E+00  0.0000E+00  0.4399E+05  0.4487E+05  0.0000E+00  0.0000E+00  0.0000E+00  0.0000E+00  0.0000E+00  0.0000E+00  0.0000E+00  0.0000E+00  0.0000E+00  0.0000E+00  0.0000E+00  0.0000E+00  0.0000E+00  0.0000E+00  0.0000E+00  0.0000E+00  0.0000E+00  0.2839E+01  0.0000E+00  0.0000E+00  0.0000E+00
REACH   18        0     1  0.6898E+04  0.2949E+02  0.2949E+02  0.0000E+00  0.1865E+02  0.8408E+03  0.1251E+04  0.1584E+02  0.4298E-03  0.0000E+00  0.1289E-02  0.0000E+00  0.7724E+02  0.8033E+02  0.4948E+02  0.5637E+02  0.6999E+01  0.9480E+01  0.4303E-03  0.0000E+00  0.8545E-15  0.0000E+00  0.0000E+00  0.0000E+00  0.1145E+07  0.1144E+07  0.0000E+00  0.0000E+00  0.0000E+00  0.0000E+00  0.0000E+00  0.0000E+00  0.0000E+00  0.0000E+00  0.0000E+00  0.0000E+00  0.0000E+00  0.0000E+00  0.0000E+00  0.0000E+00  0.0000E+00  0.0000E+00  0.0000E+00  0.1462E+03  0.0000E+00  0.0000E+00  0.0000E+00
REACH   19        0     1  0.9547E+03  0.7587E+01  0.7620E+01  0.0000E+00  0.7587E+01  0.8842E-07  0.8842E-07  0.4333E-08  0.2045E-02  0.0000E+00  0.6134E-02  0.0000E+00  0.5072E+01  0.5094E+01  0.0000E+00  0.5067E+01  0.0000E+00  0.0000E+00  0.2048E-02  0.0000E+00  0.1717E-15  0.0000E+00  0.0000E+00  0.0000E+00  0.2976E+06  0.2957E+06  0.0000E+00  0.0000E+00  0.0000E+00  0.0000E+00  0.0000E+00  0.0000E+00  0.0000E+00  0.0000E+00  0.0000E+00  0.0000E+00  0.0000E+00  0.0000E+00  0.0000E+00  0.0000E+00  0.0000E+00  0.0000E+00  0.0000E+00  0.1016E+02  0.0000E+00  0.0000E+00  0.0000E+00
REACH   20        0     1  0.5457E+03  0.9428E+00  0.9542E+00  0.0000E+00  0.9428E+00  0.6044E-07  0.6044E-07  0.2365E-07  0.9964E-03  0.0000E+00  0.2989E-02  0.0000E+00  0.4337E+01  0.4390E+01  0.0000E+00  0.2166E+01  0.0000E+00  0.0000E+00  0.9981E-03  0.0000E+00  0.1338E-14  0.0000E+00  0.0000E+00  0.0000E+00  0.3731E+05  0.3703E+05  0.0000E+00  0.0000E+00  0.0000E+00  0.0000E+00  0.0000E+00  0.0000E+00  0.0000E+00  0.0000E+00  0.0000E+00  0.0000E+00  0.0000E+00  0.0000E+00  0.0000E+00  0.0000E+00  0.0000E+00  0.0000E+00  0.0000E+00  0.6557E+01  0.0000E+00  0.0000E+00  0.0000E+00
REACH   21        0     1  0.6738E+03  0.1110E+01  0.1125E+01  0.0000E+00  0.1110E+01  0.1060E-07  0.1060E-07  0.3520E-08  0.7080E-03  0.0000E+00  0.2124E-02  0.0000E+00  0.4367E+01  0.4426E+01  0.0000E+00  0.2322E+01  0.0000E+00  0.0000E+00  0.7101E-03  0.0000E+00  0.7585E-15  0.0000E+00  0.0000E+00  0.0000E+00  0.4297E+05  0.4365E+05  0.0000E+00  0.0000E+00  0.0000E+00  0.0000E+00  0.0000E+00  0.0000E+00  0.0000E+00  0.0000E+00  0.0000E+00  0.0000E+00  0.0000E+00  0.0000E+00  0.0000E+00  0.0000E+00  0.0000E+00  0.0000E+00  0.0000E+00  0.6748E+01  0.0000E+00  0.0000E+00  0.0000E+00
REACH   22        0     1  0.5769E+04  0.2154E+02  0.2154E+02  0.0000E+00  0.1044E+02  0.5994E+03  0.8408E+03  0.1457E+02  0.9844E-03  0.0000E+00  0.1743E-02  0.0000E+00  0.6859E+02  0.7070E+02  0.3847E+02  0.4441E+02  0.4776E+01  0.6999E+01  0.5819E-03  0.0000E+00  0.4433E-15  0.0000E+00  0.0000E+00  0.0000E+00  0.8363E+06  0.8359E+06  0.0000E+00  0.0000E+00  0.0000E+00  0.0000E+00  0.0000E+00  0.0000E+00  0.0000E+00  0.0000E+00  0.0000E+00  0.0000E+00  0.0000E+00  0.0000E+00  0.0000E+00  0.0000E+00  0.0000E+00  0.0000E+00  0.0000E+00  0.1221E+03  0.0000E+00  0.0000E+00  0.0000E+00
REACH   23        0     1  0.4669E+04  0.1443E+02  0.1443E+02  0.0000E+00  0.7114E+00  0.6032E+03  0.4726E+03  0.1223E+02  0.5434E-05  0.0000E+00  0.1630E-04  0.0000E+00  0.5277E+02  0.5286E+02  0.3147E+02  0.3194E+02  0.1786E+01  0.2112E+01  0.5440E-05  0.0000E+00  0.2569E-16  0.0000E+00  0.0000E+00  0.0000E+00  0.5599E+06  0.5599E+06  0.0000E+00  0.0000E+00  0.0000E+00  0.0000E+00  0.0000E+00  0.0000E+00  0.0000E+00  0.0000E+00  0.0000E+00  0.0000E+00  0.0000E+00  0.0000E+00  0.0000E+00  0.0000E+00  0.0000E+00  0.0000E+00  0.0000E+00  0.8691E+02  0.0000E+00  0.0000E+00  0.0000E+00
REACH   24        0     1  0.5126E+04  0.1817E+02  0.1817E+02  0.0000E+00  0.1586E+02  0.4726E+03  0.5994E+03  0.1231E+02  0.1291E-02  0.0000E+00  0.3874E-02  0.0000E+00  0.6197E+02  0.6291E+02  0.3194E+02  0.3643E+02  0.2112E+01  0.4776E+01  0.1293E-02  0.0000E+00  0.1679E-15  0.0000E+00  0.0000E+00  0.0000E+00  0.7080E+06  0.7052E+06  0.0000E+00  0.0000E+00  0.0000E+00  0.0000E+00  0.0000E+00  0.0000E+00  0.0000E+00  0.0000E+00  0.0000E+00  0.0000E+00  0.0000E+00  0.0000E+00  0.0000E+00  0.0000E+00  0.0000E+00  0.0000E+00  0.0000E+00  0.1041E+03  0.0000E+00  0.0000E+00  0.0000E+00
REACH   25        0     1  0.4107E+03  0.2669E+01  0.2669E+01  0.0000E+00  0.1644E+01  0.1362E-07  0.1362E-07  0.1905E-08  0.1427E-02  0.4033E-03  0.1855E-02  0.0000E+00  0.2035E-02  0.1116E-02  0.0000E+00  0.2048E+01  0.0000E+00  0.0000E+00  0.7622E-03  0.0000E+00  0.5509E-13  0.0000E+00  0.0000E+00  0.0000E+00  0.1045E+06  0.1036E+06  0.0000E+00  0.0000E+00  0.0000E+00  0.0000E+00  0.0000E+00  0.0000E+00  0.0000E+00  0.0000E+00  0.0000E+00  0.0000E+00  0.0000E+00  0.0000E+00  0.0000E+00  0.0000E+00  0.0000E+00  0.0000E+00  0.0000E+00  0.2050E+01  0.0000E+00  0.0000E+00  0.0000E+00
REACH   26        0     1  0.1922E+04  0.6568E+01  0.6625E+01  0.0000E+00  0.6568E+01  0.2118E-06  0.2979E+03  0.1679E+02  0.9235E-03  0.0000E+00  0.2770E-02  0.0000E+00  0.9030E+01  0.9111E+01  0.5806E+01  0.1125E+02  0.0000E+00  0.6589E+00  0.9253E-03  0.0000E+00  0.1940E-15  0.0000E+00  0.0000E+00  0.0000E+00  0.2566E+06  0.2571E+06  0.0000E+00  0.0000E+00  0.0000E+00  0.0000E+00  0.0000E+00  0.0000E+00  0.0000E+00  0.0000E+00  0.0000E+00  0.0000E+00  0.0000E+00  0.0000E+00  0.0000E+00  0.0000E+00  0.0000E+00  0.0000E+00  0.0000E+00  0.2102E+02  0.0000E+00  0.0000E+00  0.0000E+00
REACH   27        0     1  0.3795E+03  0.1194E+01  0.1200E+01  0.0000E+00  0.1194E+01  0.8905E-07  0.8905E-07  0.2771E-07  0.7809E-03  0.0000E+00  0.2343E-02  0.0000E+00  0.1910E+01  0.1919E+01  0.0000E+00  0.1853E+01  0.0000E+00  0.0000E+00  0.7820E-03  0.0000E+00  0.3970E-15  0.0000E+00  0.0000E+00  0.0000E+00  0.4725E+05  0.4656E+05  0.0000E+00  0.0000E+00  0.0000E+00  0.0000E+00  0.0000E+00  0.0000E+00  0.0000E+00  0.0000E+00  0.0000E+00  0.0000E+00  0.0000E+00  0.0000E+00  0.0000E+00  0.0000E+00  0.0000E+00  0.0000E+00  0.0000E+00  0.3772E+01  0.0000E+00  0.0000E+00  0.0000E+00
REACH   28        0     1  0.1402E+04  0.2550E+01  0.2583E+01  0.0000E+00  0.2550E+01  0.9037E-08  0.9037E-08  0.1307E-08  0.1224E-02  0.0000E+00  0.3604E-02  0.0000E+00  0.4907E+01  0.4970E+01  0.0000E+00  0.4491E+01  0.0000E+00  0.0000E+00  0.1569E-02  0.0000E+00  0.1120E-11  0.0000E+00  0.0000E+00  0.0000E+00  0.9443E+05  0.1002E+06  0.0000E+00  0.0000E+00  0.0000E+00  0.0000E+00  0.0000E+00  0.0000E+00  0.0000E+00  0.0000E+00  0.0000E+00  0.0000E+00  0.0000E+00  0.0000E+00  0.0000E+00  0.0000E+00  0.0000E+00  0.0000E+00  0.0000E+00  0.9461E+01  0.0000E+00  0.0000E+00  0.0000E+00
REACH   29        0     1  0.2745E+04  0.7691E+01  0.7802E+01  0.0000E+00  0.7691E+01  0.2783E+03  0.3053E+03  0.1461E+02  0.6717E-03  0.0000E+00  0.1436E-02  0.0000E+00  0.4282E+02  0.4363E+02  0.1513E+02  0.2022E+02  0.3705E+00  0.1127E+01  0.4792E-03  0.0000E+00  0.8497E-15  0.0000E+00  0.0000E+00  0.0000E+00  0.2987E+06  0.3027E+06  0.0000E+00  0.0000E+00  0.0000E+00  0.0000E+00  0.0000E+00  0.0000E+00  0.0000E+00  0.0000E+00  0.0000E+00  0.0000E+00  0.0000E+00  0.0000E+00  0.0000E+00  0.0000E+00  0.0000E+00  0.0000E+00  0.0000E+00  0.6497E+02  0.0000E+00  0.0000E+00  0.0000E+00
REACH   30        0     1  0.1951E+04  0.6182E+01  0.6182E+01  0.0000E+00  0.3185E+01  0.2072E+03  0.2783E+03  0.1681E+02  0.7160E-04  0.0000E+00  0.2148E-03  0.0000E+00  0.1393E+02  0.1397E+02  0.9756E+01  0.1304E+02  0.1235E+00  0.3705E+00  0.7167E-04  0.0000E+00  0.7022E-16  0.0000E+00  0.0000E+00  0.0000E+00  0.2399E+06  0.2399E+06  0.0000E+00  0.0000E+00  0.0000E+00  0.0000E+00  0.0000E+00  0.0000E+00  0.0000E+00  0.0000E+00  0.0000E+00  0.0000E+00  0.0000E+00  0.0000E+00  0.0000E+00  0.0000E+00  0.0000E+00  0.0000E+00  0.0000E+00  0.2738E+02  0.0000E+00  0.0000E+00  0.0000E+00
REACH   31        0     1  0.9692E+03  0.3036E+01  0.3055E+01  0.0000E+00  0.3036E+01  0.6847E-07  0.6847E-07  0.8369E-08  0.1828E-02  0.0000E+00  0.5485E-02  0.0000E+00  0.2461E+01  0.2475E+01  0.0000E+00  0.3953E+01  0.0000E+00  0.0000E+00  0.1831E-02  0.0000E+00  0.9016E-15  0.0000E+00  0.0000E+00  0.0000E+00  0.1202E+06  0.1185E+06  0.0000E+00  0.0000E+00  0.0000E+00  0.0000E+00  0.0000E+00  0.0000E+00  0.0000E+00  0.0000E+00  0.0000E+00  0.0000E+00  0.0000E+00  0.0000E+00  0.0000E+00  0.0000E+00  0.0000E+00  0.0000E+00  0.0000E+00  0.6428E+01  0.0000E+00  0.0000E+00  0.0000E+00
REACH   32        0     1  0.4648E+03  0.1479E+01  0.1479E+01  0.0000E+00  0.1426E+01  0.6199E-07  0.6199E-07  0.1565E-07  0.8463E-03  0.0000E+00  0.2539E-02  0.0000E+00  0.3874E+01  0.3874E+01  0.0000E+00  0.1791E+01  0.0000E+00  0.0000E+00  0.8478E-03  0.0000E+00  0.3648E-15  0.0000E+00  0.0000E+00  0.0000E+00  0.5768E+05  0.5739E+05  0.0000E+00  0.0000E+00  0.0000E+00  0.0000E+00  0.0000E+00  0.0000E+00  0.0000E+00  0.0000E+00  0.0000E+00  0.0000E+00  0.0000E+00  0.0000E+00  0.0000E+00  0.0000E+00  0.0000E+00  0.0000E+00  0.0000E+00  0.5665E+01  0.0000E+00  0.0000E+00  0.0000E+00
REACH   33        0     1  0.6036E+03  0.1115E+01  0.1131E+01  0.0000E+00  0.1115E+01  0.3076E-07  0.3076E-07  0.1016E-07  0.1212E-02  0.1931E-03  0.2795E-02  0.0000E+00  0.2335E+02  0.2369E+02  0.0000E+00  0.2089E+01  0.0000E+00  0.0000E+00  0.9295E-03  0.0000E+00  0.1407E-13  0.0000E+00  0.0000E+00  0.0000E+00  0.4343E+05  0.4387E+05  0.0000E+00  0.0000E+00  0.0000E+00  0.0000E+00  0.0000E+00  0.0000E+00  0.0000E+00  0.0000E+00  0.0000E+00  0.0000E+00  0.0000E+00  0.0000E+00  0.0000E+00  0.0000E+00  0.0000E+00  0.0000E+00  0.0000E+00  0.2577E+02  0.0000E+00  0.0000E+00  0.0000E+00
REACH   34        0     1  0.1464E+04  0.4597E+01  0.4628E+01  0.0000E+00  0.4597E+01  0.5473E+02  0.2072E+03  0.1672E+02  0.7097E-03  0.0000E+00  0.2129E-02  0.0000E+00  0.9015E+01  0.9094E+01  0.3231E+01  0.7965E+01  0.4089E-01  0.1235E+00  0.7110E-03  0.0000E+00  0.2453E-15  0.0000E+00  0.0000E+00  0.0000E+00  0.1792E+06  0.1796E+06  0.0000E+00  0.0000E+00  0.0000E+00  0.0000E+00  0.0000E+00  0.0000E+00  0.0000E+00  0.0000E+00  0.0000E+00  0.0000E+00  0.0000E+00  0.0000E+00  0.0000E+00  0.0000E+00  0.0000E+00  0.0000E+00  0.0000E+00  0.1718E+02  0.0000E+00  0.0000E+00  0.0000E+00
REACH   35        0     1  0.5003E+03  0.1563E+01  0.1563E+01  0.0000E+00  0.1254E+01  0.7394E-07  0.7394E-07  0.1766E-07  0.1194E-02  0.0000E+00  0.3583E-02  0.0000E+00  0.1911E+01  0.1911E+01  0.0000E+00  0.1574E+01  0.0000E+00  0.0000E+00  0.1196E-02  0.0000E+00  0.7952E-15  0.0000E+00  0.0000E+00  0.0000E+00  0.6094E+05  0.6067E+05  0.0000E+00  0.0000E+00  0.0000E+00  0.0000E+00  0.0000E+00  0.0000E+00  0.0000E+00  0.0000E+00  0.0000E+00  0.0000E+00  0.0000E+00  0.0000E+00  0.0000E+00  0.0000E+00  0.0000E+00  0.0000E+00  0.0000E+00  0.3485E+01  0.0000E+00  0.0000E+00  0.0000E+00
REACH   36        0     1  0.5412E+03  0.1691E+01  0.1692E+01  0.0000E+00  0.6246E+00  0.1965E-06  0.5473E+02  0.1208E+02  0.2483E-04  0.0000E+00  0.7450E-04  0.0000E+00  0.3823E+01  0.3823E+01  0.9158E+00  0.1657E+01  0.0000E+00  0.4089E-01  0.2486E-04  0.0000E+00  0.2601E-16  0.0000E+00  0.0000E+00  0.0000E+00  0.6566E+05  0.6564E+05  0.0000E+00  0.0000E+00  0.0000E+00  0.0000E+00  0.0000E+00  0.0000E+00  0.0000E+00  0.0000E+00  0.0000E+00  0.0000E+00  0.0000E+00  0.0000E+00  0.0000E+00  0.0000E+00  0.0000E+00  0.0000E+00  0.0000E+00  0.5521E+01  0.0000E+00  0.0000E+00  0.0000E+00
REACH   37        0     1  0.5332E+03  0.1666E+01  0.1666E+01  0.0000E+00  0.7305E+00  0.7330E-07  0.7330E-07  0.1643E-07  0.1294E-02  0.0000E+00  0.3883E-02  0.0000E+00  0.3777E+01  0.3777E+01  0.0000E+00  0.9158E+00  0.0000E+00  0.0000E+00  0.1296E-02  0.0000E+00  0.8828E-15  0.0000E+00  0.0000E+00  0.0000E+00  0.6476E+05  0.6465E+05  0.0000E+00  0.0000E+00  0.0000E+00  0.0000E+00  0.0000E+00  0.0000E+00  0.0000E+00  0.0000E+00  0.0000E+00  0.0000E+00  0.0000E+00  0.0000E+00  0.0000E+00  0.0000E+00  0.0000E+00  0.0000E+00  0.0000E+00  0.4693E+01  0.0000E+00  0.0000E+00  0.0000E+00
REACH    1        0     2  0.3585E+03  0.2256E+01  0.2257E+01  0.0000E+00  0.9563E-01  0.8666E-07  0.8666E-07  0.1708E-07  0.7463E-03  0.0000E+00  0.2239E-02  0.0000E+00  0.8217E+01  0.8217E+01  0.0000E+00  0.1081E+00  0.0000E+00  0.0000E+00  0.7473E-03  0.0000E+00  0.1244E-15  0.0000E+00  0.0000E+00  0.0000E+00  0.7460E+05  0.7492E+05  0.0000E+00  0.0000E+00  0.0000E+00  0.0000E+00  0.0000E+00  0.0000E+00  0.0000E+00  0.0000E+00  0.0000E+00  0.0000E+00  0.0000E+00  0.0000E+00  0.0000E+00  0.0000E+00  0.0000E+00  0.0000E+00  0.0000E+00  0.8325E+01  0.0000E+00  0.0000E+00  0.0000E+00
REACH    2        0     2  0.9587E+03  0.1770E+01  0.1790E+01  0.0000E+00  0.1770E+01  0.3056E-07  0.3056E-07  0.7592E-08  0.1458E-02  0.0000E+00  0.4374E-02  0.0000E+00  0.1622E+02  0.1640E+02  0.0000E+00  0.2311E+01  0.0000E+00  0.0000E+00  0.1461E-02  0.0000E+00  0.1468E-14  0.0000E+00  0.0000E+00  0.0000E+00  0.5898E+05  0.5942E+05  0.0000E+00  0.0000E+00  0.0000E+00  0.0000E+00  0.0000E+00  0.0000E+00  0.0000E+00  0.0000E+00  0.0000E+00  0.0000E+00  0.0000E+00  0.0000E+00  0.0000E+00  0.0000E+00  0.0000E+00  0.0000E+00  0.0000E+00  0.1871E+02  0.0000E+00  0.0000E+00  0.0000E+00
REACH    3        0     2  0.1500E+04  0.9769E+01  0.9860E+01  0.0000E+00  0.9769E+01  0.1944E-07  0.1944E-07  0.8764E-09  0.1438E-02  0.0000E+00  0.4315E-02  0.0000E+00  0.2677E+02  0.2702E+02  0.0000E+00  0.4831E+01  0.0000E+00  0.0000E+00  0.1443E-02  0.0000E+00  0.4713E-16  0.0000E+00  0.0000E+00  0.0000E+00  0.3255E+06  0.3273E+06  0.0000E+00  0.0000E+00  0.0000E+00  0.0000E+00  0.0000E+00  0.0000E+00  0.0000E+00  0.0000E+00  0.0000E+00  0.0000E+00  0.0000E+00  0.0000E+00  0.0000E+00  0.0000E+00  0.0000E+00  0.0000E+00  0.0000E+00  0.3185E+02  0.0000E+00  0.0000E+00  0.0000E+00
REACH    4        0     2  0.2280E+04  0.5852E+01  0.5914E+01  0.0000E+00  0.5852E+01  0.1453E-06  0.1723E+03  0.1295E+02  0.1361E-02  0.0000E+00  0.4084E-02  0.0000E+00  0.4032E+02  0.4075E+02  0.2419E+01  0.6919E+01  0.0000E+00  0.2959E+00  0.1364E-02  0.0000E+00  0.1122E-14  0.0000E+00  0.0000E+00  0.0000E+00  0.1951E+06  0.1963E+06  0.0000E+00  0.0000E+00  0.0000E+00  0.0000E+00  0.0000E+00  0.0000E+00  0.0000E+00  0.0000E+00  0.0000E+00  0.0000E+00  0.0000E+00  0.0000E+00  0.0000E+00  0.0000E+00  0.0000E+00  0.0000E+00  0.0000E+00  0.4797E+02  0.0000E+00  0.0000E+00  0.0000E+00
REACH    5        0     2  0.8507E+04  0.2689E+02  0.2689E+02  0.0000E+00  0.8769E+00  0.9467E+03  0.1090E+04  0.1801E+02  0.9182E-04  0.0000E+00  0.2755E-03  0.0000E+00  0.1226E+03  0.1229E+03  0.4807E+02  0.4869E+02  0.7206E+01  0.7377E+01  0.9191E-04  0.0000E+00  0.2461E-16  0.0000E+00  0.0000E+00  0.0000E+00  0.8931E+06  0.8928E+06  0.0000E+00  0.0000E+00  0.0000E+00  0.0000E+00  0.0000E+00  0.0000E+00  0.0000E+00  0.0000E+00  0.0000E+00  0.0000E+00  0.0000E+00  0.0000E+00  0.0000E+00  0.0000E+00  0.0000E+00  0.0000E+00  0.0000E+00  0.1789E+03  0.0000E+00  0.0000E+00  0.0000E+00
REACH    6        0     2  0.4274E+04  0.1670E+02  0.1670E+02  0.0000E+00  0.1078E+02  0.1723E+03  0.5050E+03  0.1344E+02  0.8183E-03  0.0000E+00  0.2455E-02  0.0000E+00  0.7547E+02  0.7561E+02  0.1175E+02  0.1757E+02  0.2959E+00  0.8879E+00  0.8197E-03  0.0000E+00  0.9130E-15  0.0000E+00  0.0000E+00  0.0000E+00  0.5551E+06  0.5545E+06  0.0000E+00  0.0000E+00  0.0000E+00  0.0000E+00  0.0000E+00  0.0000E+00  0.0000E+00  0.0000E+00  0.0000E+00  0.0000E+00  0.0000E+00  0.0000E+00  0.0000E+00  0.0000E+00  0.0000E+00  0.0000E+00  0.0000E+00  0.9407E+02  0.0000E+00  0.0000E+00  0.0000E+00
REACH    7        0     2  0.1876E+05  0.6375E+02  0.6375E+02  0.0000E+00  0.1295E+02  0.1947E+04  0.1947E+04  0.1358E+02  0.1456E-03  0.0000E+00  0.4369E-03  0.0000E+00  0.2036E+03  0.2095E+03  0.1085E+03  0.1150E+03  0.1970E+02  0.2231E+02  0.1458E-03  0.0000E+00  0.3326E-16  0.0000E+00  0.0000E+00  0.0000E+00  0.2118E+07  0.2116E+07  0.0000E+00  0.0000E+00  0.0000E+00  0.0000E+00  0.0000E+00  0.0000E+00  0.0000E+00  0.0000E+00  0.0000E+00  0.0000E+00  0.0000E+00  0.0000E+00  0.0000E+00  0.0000E+00  0.0000E+00  0.0000E+00  0.0000E+00  0.3468E+03  0.0000E+00  0.0000E+00  0.0000E+00
REACH    8        0     2  0.8185E+03  0.1540E+01  0.1556E+01  0.0000E+00  0.1540E+01  0.8657E-07  0.8657E-07  0.2474E-07  0.1745E-02  0.0000E+00  0.5236E-02  0.4355E-02  0.8933E+01  0.9024E+01  0.0000E+00  0.1052E+01  0.0000E+00  0.0000E+00  0.1748E-02  0.0000E+00  0.3386E-14  0.0000E+00  0.0000E+00  0.0000E+00  0.5140E+05  0.5165E+05  0.0000E+00  0.0000E+00  0.0000E+00  0.0000E+00  0.0000E+00  0.0000E+00  0.0000E+00  0.0000E+00  0.0000E+00  0.0000E+00  0.0000E+00  0.0000E+00  0.0000E+00  0.0000E+00  0.0000E+00  0.0000E+00  0.0000E+00  0.1008E+02  0.4355E-02  0.0000E+00  0.0000E+00
REACH    9        0     2  0.7907E+04  0.3199E+02  0.3199E+02  0.0000E+00  0.2886E+01  0.1086E+04  0.1165E+04  0.1619E+02  0.4837E-03  0.0000E+00  0.5806E-02  0.0000E+00  0.7450E+02  0.7561E+02  0.5301E+02  0.5467E+02  0.9197E+01  0.9761E+01  0.4842E-03  0.0000E+00  0.3530E-15  0.0000E+00  0.0000E+00  0.0000E+00  0.1064E+07  0.1062E+07  0.0000E+00  0.0000E+00  0.0000E+00  0.0000E+00  0.0000E+00  0.0000E+00  0.0000E+00  0.0000E+00  0.0000E+00  0.0000E+00  0.0000E+00  0.0000E+00  0.0000E+00  0.0000E+00  0.0000E+00  0.0000E+00  0.0000E+00  0.1400E+03  0.0000E+00  0.0000E+00  0.0000E+00
REACH   10        0     2  0.7875E+04  0.2485E+02  0.2485E+02  0.0000E+00  0.7459E+01  0.5589E+03  0.9467E+03  0.1693E+02  0.3780E-04  0.0000E+00  0.2048E-02  0.0000E+00  0.1134E+03  0.1151E+03  0.4012E+02  0.4561E+02  0.5793E+01  0.7206E+01  0.3784E-04  0.0000E+00  0.5664E-16  0.0000E+00  0.0000E+00  0.0000E+00  0.8251E+06  0.8250E+06  0.0000E+00  0.0000E+00  0.0000E+00  0.0000E+00  0.0000E+00  0.0000E+00  0.0000E+00  0.0000E+00  0.0000E+00  0.0000E+00  0.0000E+00  0.0000E+00  0.0000E+00  0.0000E+00  0.0000E+00  0.0000E+00  0.0000E+00  0.1679E+03  0.0000E+00  0.0000E+00  0.0000E+00
REACH   11        0     2  0.7315E+04  0.2386E+02  0.2386E+02  0.0000E+00  0.7212E+01  0.7438E+03  0.5589E+03  0.1041E+02  0.5426E-04  0.0000E+00  0.1628E-03  0.0000E+00  0.1087E+03  0.1101E+03  0.3447E+02  0.3811E+02  0.3032E+01  0.5793E+01  0.5432E-04  0.0000E+00  0.7138E-16  0.0000E+00  0.0000E+00  0.0000E+00  0.7923E+06  0.7922E+06  0.0000E+00  0.0000E+00  0.0000E+00  0.0000E+00  0.0000E+00  0.0000E+00  0.0000E+00  0.0000E+00  0.0000E+00  0.0000E+00  0.0000E+00  0.0000E+00  0.0000E+00  0.0000E+00  0.0000E+00  0.0000E+00  0.0000E+00  0.1540E+03  0.0000E+00  0.0000E+00  0.0000E+00
REACH   12        0     2  0.2522E+04  0.5649E+01  0.5649E+01  0.0000E+00  0.3260E+01  0.1035E+03  0.7339E+02  0.5775E+01  0.4881E-03  0.0000E+00  0.1464E-02  0.0000E+00  0.3018E+02  0.3039E+02  0.9032E+01  0.1019E+02  0.4537E+00  0.1335E+01  0.4886E-03  0.0000E+00  0.2711E-14  0.0000E+00  0.0000E+00  0.0000E+00  0.1879E+06  0.1875E+06  0.0000E+00  0.0000E+00  0.0000E+00  0.0000E+00  0.0000E+00  0.0000E+00  0.0000E+00  0.0000E+00  0.0000E+00  0.0000E+00  0.0000E+00  0.0000E+00  0.0000E+00  0.0000E+00  0.0000E+00  0.0000E+00  0.0000E+00  0.4192E+02  0.0000E+00  0.0000E+00  0.0000E+00
REACH   13        0     2  0.1667E+04  0.4031E+01  0.4031E+01  0.0000E+00  0.2617E+01  0.9448E-07  0.1035E+03  0.1142E+02  0.5714E-03  0.0000E+00  0.1714E-02  0.0000E+00  0.6472E+01  0.6472E+01  0.4249E+01  0.6820E+01  0.0000E+00  0.4537E+00  0.5722E-03  0.0000E+00  0.1438E-15  0.0000E+00  0.0000E+00  0.0000E+00  0.1348E+06  0.1338E+06  0.0000E+00  0.0000E+00  0.0000E+00  0.0000E+00  0.0000E+00  0.0000E+00  0.0000E+00  0.0000E+00  0.0000E+00  0.0000E+00  0.0000E+00  0.0000E+00  0.0000E+00  0.0000E+00  0.0000E+00  0.0000E+00  0.0000E+00  0.1375E+02  0.0000E+00  0.0000E+00  0.0000E+00
REACH   14        0     2  0.3021E+04  0.6998E+01  0.7070E+01  0.0000E+00  0.6998E+01  0.7339E+02  0.2388E+03  0.1501E+02  0.2161E-03  0.0000E+00  0.6483E-03  0.0000E+00  0.3171E+02  0.3266E+02  0.1164E+02  0.1691E+02  0.1335E+01  0.2144E+01  0.2164E-03  0.0000E+00  0.4404E-15  0.0000E+00  0.0000E+00  0.0000E+00  0.2325E+06  0.2347E+06  0.0000E+00  0.0000E+00  0.0000E+00  0.0000E+00  0.0000E+00  0.0000E+00  0.0000E+00  0.0000E+00  0.0000E+00  0.0000E+00  0.0000E+00  0.0000E+00  0.0000E+00  0.0000E+00  0.0000E+00  0.0000E+00  0.0000E+00  0.5171E+02  0.0000E+00  0.0000E+00  0.0000E+00
REACH   15        0     2  0.1079E+05  0.3107E+02  0.3138E+02  0.0000E+00  0.3107E+02  0.1090E+04  0.7826E+03  0.1109E+02  0.1941E-02  0.0000E+00  0.5823E-02  0.0000E+00  0.1229E+03  0.1275E+03  0.4869E+02  0.5387E+02  0.7377E+01  0.9934E+01  0.1947E-02  0.0000E+00  0.6186E-15  0.0000E+00  0.0000E+00  0.0000E+00  0.1034E+07  0.1043E+07  0.0000E+00  0.0000E+00  0.0000E+00  0.0000E+00  0.0000E+00  0.0000E+00  0.0000E+00  0.0000E+00  0.0000E+00  0.0000E+00  0.0000E+00  0.0000E+00  0.0000E+00  0.0000E+00  0.0000E+00  0.0000E+00  0.0000E+00  0.1913E+03  0.0000E+00  0.0000E+00  0.0000E+00
REACH   16        0     2  0.5981E+03  0.1809E+01  0.1830E+01  0.0000E+00  0.1809E+01  0.3203E-07  0.3203E-07  0.7783E-08  0.9597E-03  0.0000E+00  0.2879E-02  0.0000E+00  0.6818E+01  0.6896E+01  0.0000E+00  0.2467E+01  0.0000E+00  0.0000E+00  0.9614E-03  0.0000E+00  0.3944E-15  0.0000E+00  0.0000E+00  0.0000E+00  0.6126E+05  0.6084E+05  0.0000E+00  0.0000E+00  0.0000E+00  0.0000E+00  0.0000E+00  0.0000E+00  0.0000E+00  0.0000E+00  0.0000E+00  0.0000E+00  0.0000E+00  0.0000E+00  0.0000E+00  0.0000E+00  0.0000E+00  0.0000E+00  0.0000E+00  0.9363E+01  0.0000E+00  0.0000E+00  0.0000E+00
REACH   17        0     2  0.3904E+03  0.1153E+01  0.1164E+01  0.0000E+00  0.1153E+01  0.1074E-07  0.1074E-07  0.4100E-08  0.4109E-03  0.0000E+00  0.1233E-02  0.0000E+00  0.2726E+00  0.2746E+00  0.0000E+00  0.1444E+01  0.0000E+00  0.0000E+00  0.4119E-03  0.0000E+00  0.7986E-16  0.0000E+00  0.0000E+00  0.0000E+00  0.3776E+05  0.3871E+05  0.0000E+00  0.0000E+00  0.0000E+00  0.0000E+00  0.0000E+00  0.0000E+00  0.0000E+00  0.0000E+00  0.0000E+00  0.0000E+00  0.0000E+00  0.0000E+00  0.0000E+00  0.0000E+00  0.0000E+00  0.0000E+00  0.0000E+00  0.1719E+01  0.0000E+00  0.0000E+00  0.0000E+00
REACH   18        0     2  0.6898E+04  0.2974E+02  0.2974E+02  0.0000E+00  0.1933E+02  0.7280E+03  0.1086E+04  0.1623E+02  0.3882E-03  0.0000E+00  0.1165E-02  0.0000E+00  0.5878E+02  0.6194E+02  0.4579E+02  0.5196E+02  0.6842E+01  0.9197E+01  0.3887E-03  0.0000E+00  0.8139E-15  0.0000E+00  0.0000E+00  0.0000E+00  0.9891E+06  0.9890E+06  0.0000E+00  0.0000E+00  0.0000E+00  0.0000E+00  0.0000E+00  0.0000E+00  0.0000E+00  0.0000E+00  0.0000E+00  0.0000E+00  0.0000E+00  0.0000E+00  0.0000E+00  0.0000E+00  0.0000E+00  0.0000E+00  0.0000E+00  0.1231E+03  0.0000E+00  0.0000E+00  0.0000E+00
REACH   19        0     2  0.9547E+03  0.7688E+01  0.7743E+01  0.0000E+00  0.7688E+01  0.7987E-07  0.7987E-07  0.4586E-08  0.1847E-02  0.0000E+00  0.5541E-02  0.0000E+00  0.4179E+01  0.4209E+01  0.0000E+00  0.4786E+01  0.0000E+00  0.0000E+00  0.1850E-02  0.0000E+00  0.1617E-15  0.0000E+00  0.0000E+00  0.0000E+00  0.2585E+06  0.2575E+06  0.0000E+00  0.0000E+00  0.0000E+00  0.0000E+00  0.0000E+00  0.0000E+00  0.0000E+00  0.0000E+00  0.0000E+00  0.0000E+00  0.0000E+00  0.0000E+00  0.0000E+00  0.0000E+00  0.0000E+00  0.0000E+00  0.0000E+00  0.8995E+01  0.0000E+00  0.0000E+00  0.0000E+00
REACH   20        0     2  0.5457E+03  0.9407E+00  0.9511E+00  0.0000E+00  0.9407E+00  0.5459E-07  0.5459E-07  0.2552E-07  0.9000E-03  0.0000E+00  0.2700E-02  0.1935E-02  0.3123E+01  0.3158E+01  0.0000E+00  0.2012E+01  0.0000E+00  0.0000E+00  0.9015E-03  0.0000E+00  0.1305E-14  0.0000E+00  0.0000E+00  0.0000E+00  0.3186E+05  0.3163E+05  0.0000E+00  0.0000E+00  0.0000E+00  0.0000E+00  0.0000E+00  0.0000E+00  0.0000E+00  0.0000E+00  0.0000E+00  0.0000E+00  0.0000E+00  0.0000E+00  0.0000E+00  0.0000E+00  0.0000E+00  0.0000E+00  0.0000E+00  0.5170E+01  0.1935E-02  0.0000E+00  0.0000E+00
REACH   21        0     2  0.6738E+03  0.1108E+01  0.1120E+01  0.0000E+00  0.1108E+01  0.9576E-08  0.9576E-08  0.3801E-08  0.6395E-03  0.0000E+00  0.1918E-02  0.0000E+00  0.2938E+01  0.2970E+01  0.0000E+00  0.2212E+01  0.0000E+00  0.0000E+00  0.6413E-03  0.0000E+00  0.3189E-15  0.0000E+00  0.0000E+00  0.0000E+00  0.3670E+05  0.3725E+05  0.0000E+00  0.0000E+00  0.0000E+00  0.0000E+00  0.0000E+00  0.0000E+00  0.0000E+00  0.0000E+00  0.0000E+00  0.0000E+00  0.0000E+00  0.0000E+00  0.0000E+00  0.0000E+00  0.0000E+00  0.0000E+00  0.0000E+00  0.5182E+01  0.0000E+00  0.0000E+00  0.0000E+00
REACH   22        0     2  0.5769E+04  0.2167E+02  0.2167E+02  0.0000E+00  0.1082E+02  0.5177E+03  0.7280E+03  0.1494E+02  0.5249E-03  0.0000E+00  0.1575E-02  0.0000E+00  0.5119E+02  0.5338E+02  0.3566E+02  0.4100E+02  0.4739E+01  0.6842E+01  0.5256E-03  0.0000E+00  0.4237E-15  0.0000E+00  0.0000E+00  0.0000E+00  0.7198E+06  0.7205E+06  0.0000E+00  0.0000E+00  0.0000E+00  0.0000E+00  0.0000E+00  0.0000E+00  0.0000E+00  0.0000E+00  0.0000E+00  0.0000E+00  0.0000E+00  0.0000E+00  0.0000E+00  0.0000E+00  0.0000E+00  0.0000E+00  0.0000E+00  0.1012E+03  0.0000E+00  0.0000E+00  0.0000E+00
REACH   23        0     2  0.4669E+04  0.1448E+02  0.1448E+02  0.0000E+00  0.7375E+00  0.5188E+03  0.4073E+03  0.1251E+02  0.4908E-05  0.0000E+00  0.1473E-04  0.0000E+00  0.3806E+02  0.3816E+02  0.2928E+02  0.2971E+02  0.1819E+01  0.2143E+01  0.4913E-05  0.0000E+00  0.2470E-16  0.0000E+00  0.0000E+00  0.0000E+00  0.4807E+06  0.4807E+06  0.0000E+00  0.0000E+00  0.0000E+00  0.0000E+00  0.0000E+00  0.0000E+00  0.0000E+00  0.0000E+00  0.0000E+00  0.0000E+00  0.0000E+00  0.0000E+00  0.0000E+00  0.0000E+00  0.0000E+00  0.0000E+00  0.0000E+00  0.7001E+02  0.0000E+00  0.0000E+00  0.0000E+00
REACH   24        0     2  0.5126E+04  0.1826E+02  0.1826E+02  0.0000E+00  0.1645E+02  0.4073E+03  0.5177E+03  0.1260E+02  0.1166E-02  0.0000E+00  0.3499E-02  0.0000E+00  0.4551E+02  0.4651E+02  0.2971E+02  0.3371E+02  0.2143E+01  0.4739E+01  0.1168E-02  0.0000E+00  0.1599E-15  0.0000E+00  0.0000E+00  0.0000E+00  0.6088E+06  0.6061E+06  0.0000E+00  0.0000E+00  0.0000E+00  0.0000E+00  0.0000E+00  0.0000E+00  0.0000E+00  0.0000E+00  0.0000E+00  0.0000E+00  0.0000E+00  0.0000E+00  0.0000E+00  0.0000E+00  0.0000E+00  0.0000E+00  0.0000E+00  0.8496E+02  0.0000E+00  0.0000E+00  0.0000E+00
REACH   25        0     2  0.4107E+03  0.2707E+01  0.2707E+01  0.0000E+00  0.1705E+01  0.1230E-07  0.1230E-07  0.2020E-08  0.5067E-03  0.0000E+00  0.1520E-02  0.0000E+00  0.5078E-03  0.0000E+00  0.0000E+00  0.1951E+01  0.0000E+00  0.0000E+00  0.5078E-03  0.0000E+00  0.2595E-16  0.0000E+00  0.0000E+00  0.0000E+00  0.9085E+05  0.8986E+05  0.0000E+00  0.0000E+00  0.0000E+00  0.0000E+00  0.0000E+00  0.0000E+00  0.0000E+00  0.0000E+00  0.0000E+00  0.0000E+00  0.0000E+00  0.0000E+00  0.0000E+00  0.0000E+00  0.0000E+00  0.0000E+00  0.0000E+00  0.1951E+01  0.0000E+00  0.0000E+00  0.0000E+00
REACH   26        0     2  0.1922E+04  0.6622E+01  0.6678E+01  0.0000E+00  0.6622E+01  0.1913E-06  0.2573E+03  0.1713E+02  0.8341E-03  0.0000E+00  0.2502E-02  0.0000E+00  0.6330E+01  0.6382E+01  0.5436E+01  0.1048E+02  0.0000E+00  0.6636E+00  0.8357E-03  0.0000E+00  0.1860E-15  0.0000E+00  0.0000E+00  0.0000E+00  0.2213E+06  0.2217E+06  0.0000E+00  0.0000E+00  0.0000E+00  0.0000E+00  0.0000E+00  0.0000E+00  0.0000E+00  0.0000E+00  0.0000E+00  0.0000E+00  0.0000E+00  0.0000E+00  0.0000E+00  0.0000E+00  0.0000E+00  0.0000E+00  0.0000E+00  0.1753E+02  0.0000E+00  0.0000E+00  0.0000E+00
REACH   27        0     2  0.3795E+03  0.1202E+01  0.1212E+01  0.0000E+00  0.1202E+01  0.8043E-07  0.8043E-07  0.2949E-07  0.7053E-03  0.0000E+00  0.2116E-02  0.0000E+00  0.1272E+01  0.1283E+01  0.0000E+00  0.1772E+01  0.0000E+00  0.0000E+00  0.7064E-03  0.0000E+00  0.3815E-15  0.0000E+00  0.0000E+00  0.0000E+00  0.4066E+05  0.4025E+05  0.0000E+00  0.0000E+00  0.0000E+00  0.0000E+00  0.0000E+00  0.0000E+00  0.0000E+00  0.0000E+00  0.0000E+00  0.0000E+00  0.0000E+00  0.0000E+00  0.0000E+00  0.0000E+00  0.0000E+00  0.0000E+00  0.0000E+00  0.3055E+01  0.0000E+00  0.0000E+00  0.0000E+00
REACH   28        0     2  0.1402E+04  0.2548E+01  0.2575E+01  0.0000E+00  0.2548E+01  0.8163E-08  0.8163E-08  0.1409E-08  0.1085E-02  0.0000E+00  0.3255E-02  0.0000E+00  0.2933E+01  0.2963E+01  0.0000E+00  0.4249E+01  0.0000E+00  0.0000E+00  0.1089E-02  0.0000E+00  0.3218E-15  0.0000E+00  0.0000E+00  0.0000E+00  0.8074E+05  0.8550E+05  0.0000E+00  0.0000E+00  0.0000E+00  0.0000E+00  0.0000E+00  0.0000E+00  0.0000E+00  0.0000E+00  0.0000E+00  0.0000E+00  0.0000E+00  0.0000E+00  0.0000E+00  0.0000E+00  0.0000E+00  0.0000E+00  0.0000E+00  0.7213E+01  0.0000E+00  0.0000E+00  0.0000E+00
REACH   29        0     2  0.2745E+04  0.7728E+01  0.7798E+01  0.0000E+00  0.7728E+01  0.2439E+03  0.2615E+03  0.1491E+02  0.4323E-03  0.0000E+00  0.1297E-02  0.0000E+00  0.3120E+02  0.3166E+02  0.1425E+02  0.1880E+02  0.3818E+00  0.1156E+01  0.4328E-03  0.0000E+00  0.8290E-15  0.0000E+00  0.0000E+00  0.0000E+00  0.2568E+06  0.2589E+06  0.0000E+00  0.0000E+00  0.0000E+00  0.0000E+00  0.0000E+00  0.0000E+00  0.0000E+00  0.0000E+00  0.0000E+00  0.0000E+00  0.0000E+00  0.0000E+00  0.0000E+00  0.0000E+00  0.0000E+00  0.0000E+00  0.0000E+00  0.5161E+02  0.0000E+00  0.0000E+00  0.0000E+00
REACH   30        0     2  0.1951E+04  0.6228E+01  0.6229E+01  0.0000E+00  0.3302E+01  0.1794E+03  0.2439E+03  0.1741E+02  0.6467E-04  0.0000E+00  0.1940E-03  0.0000E+00  0.9997E+01  0.1004E+02  0.9213E+01  0.1230E+02  0.1273E+00  0.3818E+00  0.6473E-04  0.0000E+00  0.6891E-16  0.0000E+00  0.0000E+00  0.0000E+00  0.2068E+06  0.2068E+06  0.0000E+00  0.0000E+00  0.0000E+00  0.0000E+00  0.0000E+00  0.0000E+00  0.0000E+00  0.0000E+00  0.0000E+00  0.0000E+00  0.0000E+00  0.0000E+00  0.0000E+00  0.0000E+00  0.0000E+00  0.0000E+00  0.0000E+00  0.2271E+02  0.0000E+00  0.0000E+00  0.0000E+00
REACH   31        0     2  0.9692E+03  0.3057E+01  0.3084E+01  0.0000E+00  0.3057E+01  0.6185E-07  0.6185E-07  0.8917E-08  0.1651E-02  0.0000E+00  0.4954E-02  0.0000E+00  0.1808E+01  0.1824E+01  0.0000E+00  0.3664E+01  0.0000E+00  0.0000E+00  0.1654E-02  0.0000E+00  0.8675E-15  0.0000E+00  0.0000E+00  0.0000E+00  0.1034E+06  0.1024E+06  0.0000E+00  0.0000E+00  0.0000E+00  0.0000E+00  0.0000E+00  0.0000E+00  0.0000E+00  0.0000E+00  0.0000E+00  0.0000E+00  0.0000E+00  0.0000E+00  0.0000E+00  0.0000E+00  0.0000E+00  0.0000E+00  0.0000E+00  0.5488E+01  0.0000E+00  0.0000E+00  0.0000E+00
REACH   32        0     2  0.4648E+03  0.1486E+01  0.1488E+01  0.0000E+00  0.1475E+01  0.5599E-07  0.5599E-07  0.1673E-07  0.7644E-03  0.0000E+00  0.2293E-02  0.0000E+00  0.2776E+01  0.2781E+01  0.0000E+00  0.1709E+01  0.0000E+00  0.0000E+00  0.7657E-03  0.0000E+00  0.3500E-15  0.0000E+00  0.0000E+00  0.0000E+00  0.4955E+05  0.4941E+05  0.0000E+00  0.0000E+00  0.0000E+00  0.0000E+00  0.0000E+00  0.0000E+00  0.0000E+00  0.0000E+00  0.0000E+00  0.0000E+00  0.0000E+00  0.0000E+00  0.0000E+00  0.0000E+00  0.0000E+00  0.0000E+00  0.0000E+00  0.4490E+01  0.0000E+00  0.0000E+00  0.0000E+00
REACH   33        0     2  0.6036E+03  0.1108E+01  0.1122E+01  0.0000E+00  0.1108E+01  0.2778E-07  0.2778E-07  0.1101E-07  0.8349E-03  0.0000E+00  0.2505E-02  0.0000E+00  0.1716E+02  0.1737E+02  0.0000E+00  0.1960E+01  0.0000E+00  0.0000E+00  0.8366E-03  0.0000E+00  0.7020E-15  0.0000E+00  0.0000E+00  0.0000E+00  0.3701E+05  0.3724E+05  0.0000E+00  0.0000E+00  0.0000E+00  0.0000E+00  0.0000E+00  0.0000E+00  0.0000E+00  0.0000E+00  0.0000E+00  0.0000E+00  0.0000E+00  0.0000E+00  0.0000E+00  0.0000E+00  0.0000E+00  0.0000E+00  0.0000E+00  0.1932E+02  0.0000E+00  0.0000E+00  0.0000E+00
REACH   34        0     2  0.1464E+04  0.4623E+01  0.4665E+01  0.0000E+00  0.4623E+01  0.4786E+02  0.1794E+03  0.1709E+02  0.6410E-03  0.0000E+00  0.1923E-02  0.0000E+00  0.6430E+01  0.6507E+01  0.3074E+01  0.7504E+01  0.4204E-01  0.1273E+00  0.6422E-03  0.0000E+00  0.2354E-15  0.0000E+00  0.0000E+00  0.0000E+00  0.1542E+06  0.1549E+06  0.0000E+00  0.0000E+00  0.0000E+00  0.0000E+00  0.0000E+00  0.0000E+00  0.0000E+00  0.0000E+00  0.0000E+00  0.0000E+00  0.0000E+00  0.0000E+00  0.0000E+00  0.0000E+00  0.0000E+00  0.0000E+00  0.0000E+00  0.1414E+02  0.0000E+00  0.0000E+00  0.0000E+00
REACH   35        0     2  0.5003E+03  0.1573E+01  0.1573E+01  0.0000E+00  0.1300E+01  0.6678E-07  0.6678E-07  0.1888E-07  0.1079E-02  0.0000E+00  0.3236E-02  0.0000E+00  0.1340E+01  0.1340E+01  0.0000E+00  0.1499E+01  0.0000E+00  0.0000E+00  0.1080E-02  0.0000E+00  0.7642E-15  0.0000E+00  0.0000E+00  0.0000E+00  0.5242E+05  0.5222E+05  0.0000E+00  0.0000E+00  0.0000E+00  0.0000E+00  0.0000E+00  0.0000E+00  0.0000E+00  0.0000E+00  0.0000E+00  0.0000E+00  0.0000E+00  0.0000E+00  0.0000E+00  0.0000E+00  0.0000E+00  0.0000E+00  0.0000E+00  0.2839E+01  0.0000E+00  0.0000E+00  0.0000E+00
REACH   36        0     2  0.5412E+03  0.1702E+01  0.1702E+01  0.0000E+00  0.6473E+00  0.1775E-06  0.4786E+02  0.1250E+02  0.2243E-04  0.0000E+00  0.6729E-04  0.0000E+00  0.2673E+01  0.2673E+01  0.8723E+00  0.1575E+01  0.0000E+00  0.4204E-01  0.2245E-04  0.0000E+00  0.2499E-16  0.0000E+00  0.0000E+00  0.0000E+00  0.5651E+05  0.5649E+05  0.0000E+00  0.0000E+00  0.0000E+00  0.0000E+00  0.0000E+00  0.0000E+00  0.0000E+00  0.0000E+00  0.0000E+00  0.0000E+00  0.0000E+00  0.0000E+00  0.0000E+00  0.0000E+00  0.0000E+00  0.0000E+00  0.0000E+00  0.4289E+01  0.0000E+00  0.0000E+00  0.0000E+00
REACH   37        0     2  0.5332E+03  0.1676E+01  0.1676E+01  0.0000E+00  0.7575E+00  0.6621E-07  0.6621E-07  0.1756E-07  0.1169E-02  0.0000E+00  0.3508E-02  0.0000E+00  0.2642E+01  0.2642E+01  0.0000E+00  0.8723E+00  0.0000E+00  0.0000E+00  0.1171E-02  0.0000E+00  0.8472E-15  0.0000E+00  0.0000E+00  0.0000E+00  0.5570E+05  0.5565E+05  0.0000E+00  0.0000E+00  0.0000E+00  0.0000E+00  0.0000E+00  0.0000E+00  0.0000E+00  0.0000E+00  0.0000E+00  0.0000E+00  0.0000E+00  0.0000E+00  0.0000E+00  0.0000E+00  0.0000E+00  0.0000E+00  0.0000E+00  0.3515E+01  0.0000E+00  0.0000E+00  0.0000E+00
REACH    1        0     3  0.3585E+03  0.2077E+01  0.2078E+01  0.0000E+00  0.9208E-01  0.9595E-07  0.9595E-07  0.1725E-07  0.8263E-03  0.0000E+00  0.2479E-02  0.0000E+00  0.7235E+01  0.7235E+01  0.0000E+00  0.1390E+00  0.0000E+00  0.0000E+00  0.8274E-03  0.0000E+00  0.1511E-15  0.0000E+00  0.0000E+00  0.0000E+00  0.7522E+05  0.7548E+05  0.0000E+00  0.0000E+00  0.0000E+00  0.0000E+00  0.0000E+00  0.0000E+00  0.0000E+00  0.0000E+00  0.0000E+00  0.0000E+00  0.0000E+00  0.0000E+00  0.0000E+00  0.0000E+00  0.0000E+00  0.0000E+00  0.0000E+00  0.7374E+01  0.0000E+00  0.0000E+00  0.0000E+00
REACH    2        0     3  0.9587E+03  0.1623E+01  0.1646E+01  0.0000E+00  0.1623E+01  0.3384E-07  0.3384E-07  0.7678E-08  0.1614E-02  0.0000E+00  0.4843E-02  0.0000E+00  0.1570E+02  0.1592E+02  0.0000E+00  0.2919E+01  0.0000E+00  0.0000E+00  0.1617E-02  0.0000E+00  0.1797E-14  0.0000E+00  0.0000E+00  0.0000E+00  0.5925E+05  0.5980E+05  0.0000E+00  0.0000E+00  0.0000E+00  0.0000E+00  0.0000E+00  0.0000E+00  0.0000E+00  0.0000E+00  0.0000E+00  0.0000E+00  0.0000E+00  0.0000E+00  0.0000E+00  0.0000E+00  0.0000E+00  0.0000E+00  0.0000E+00  0.1884E+02  0.0000E+00  0.0000E+00  0.0000E+00
REACH    3        0     3  0.1500E+04  0.9011E+01  0.9122E+01  0.0000E+00  0.9011E+01  0.2152E-07  0.2152E-07  0.8810E-09  0.1592E-02  0.0000E+00  0.4777E-02  0.0000E+00  0.2592E+02  0.2624E+02  0.0000E+00  0.6113E+01  0.0000E+00  0.0000E+00  0.1597E-02  0.0000E+00  0.5703E-16  0.0000E+00  0.0000E+00  0.0000E+00  0.3288E+06  0.3314E+06  0.0000E+00  0.0000E+00  0.0000E+00  0.0000E+00  0.0000E+00  0.0000E+00  0.0000E+00  0.0000E+00  0.0000E+00  0.0000E+00  0.0000E+00  0.0000E+00  0.0000E+00  0.0000E+00  0.0000E+00  0.0000E+00  0.0000E+00  0.3235E+02  0.0000E+00  0.0000E+00  0.0000E+00
REACH    4        0     3  0.2280E+04  0.5380E+01  0.5451E+01  0.0000E+00  0.5380E+01  0.1609E-06  0.1792E+03  0.1228E+02  0.1507E-02  0.0000E+00  0.4521E-02  0.0000E+00  0.3836E+02  0.3886E+02  0.3058E+01  0.8680E+01  0.0000E+00  0.4629E+00  0.1510E-02  0.0000E+00  0.1372E-14  0.0000E+00  0.0000E+00  0.0000E+00  0.1964E+06  0.1980E+06  0.0000E+00  0.0000E+00  0.0000E+00  0.0000E+00  0.0000E+00  0.0000E+00  0.0000E+00  0.0000E+00  0.0000E+00  0.0000E+00  0.0000E+00  0.0000E+00  0.0000E+00  0.0000E+00  0.0000E+00  0.0000E+00  0.0000E+00  0.4800E+02  0.0000E+00  0.0000E+00  0.0000E+00
REACH    5        0     3  0.8507E+04  0.2482E+02  0.2482E+02  0.0000E+00  0.8454E+00  0.9846E+03  0.1137E+04  0.1710E+02  0.1017E-03  0.0000E+00  0.3050E-03  0.0000E+00  0.1134E+03  0.1138E+03  0.5809E+02  0.5880E+02  0.1017E+02  0.1040E+02  0.1018E-03  0.0000E+00  0.2981E-16  0.0000E+00  0.0000E+00  0.0000E+00  0.9018E+06  0.9019E+06  0.0000E+00  0.0000E+00  0.0000E+00  0.0000E+00  0.0000E+00  0.0000E+00  0.0000E+00  0.0000E+00  0.0000E+00  0.0000E+00  0.0000E+00  0.0000E+00  0.0000E+00  0.0000E+00  0.0000E+00  0.0000E+00  0.0000E+00  0.1830E+03  0.0000E+00  0.0000E+00  0.0000E+00
REACH    6        0     3  0.4274E+04  0.1542E+02  0.1542E+02  0.0000E+00  0.1039E+02  0.1792E+03  0.5259E+03  0.1273E+02  0.9060E-03  0.0000E+00  0.2718E-02  0.0000E+00  0.7255E+02  0.7280E+02  0.1479E+02  0.2172E+02  0.4629E+00  0.1389E+01  0.9075E-03  0.0000E+00  0.1117E-14  0.0000E+00  0.0000E+00  0.0000E+00  0.5610E+06  0.5604E+06  0.0000E+00  0.0000E+00  0.0000E+00  0.0000E+00  0.0000E+00  0.0000E+00  0.0000E+00  0.0000E+00  0.0000E+00  0.0000E+00  0.0000E+00  0.0000E+00  0.0000E+00  0.0000E+00  0.0000E+00  0.0000E+00  0.0000E+00  0.9592E+02  0.0000E+00  0.0000E+00  0.0000E+00
REACH    7        0     3  0.1876E+05  0.5979E+02  0.5979E+02  0.0000E+00  0.1249E+02  0.2079E+04  0.2079E+04  0.1298E+02  0.1531E+03  0.1391E+03  0.4444E+02  0.3835E+02  0.3005E+03  0.3135E+03  0.1801E+03  0.1919E+03  0.3691E+02  0.4200E+02  0.8101E+02  0.8736E+02  0.1289E+00  0.2091E-01  0.6046E+03  0.2854E+03  0.2166E+07  0.2171E+07  0.0000E+00  0.0000E+00  0.0000E+00  0.0000E+00  0.0000E+00  0.0000E+00  0.0000E+00  0.0000E+00  0.0000E+00  0.0000E+00  0.0000E+00  0.0000E+00  0.0000E+00  0.0000E+00  0.0000E+00  0.0000E+00  0.0000E+00  0.6866E+03  0.1257E+03  0.0000E+00  0.0000E+00
REACH    8        0     3  0.8185E+03  0.1526E+01  0.1521E+01  0.0000E+00  0.1526E+01  0.3897E+02  0.3897E+02  0.8482E+01  0.7402E+02  0.3543E+02  0.2595E+02  0.1138E+02  0.2709E+02  0.1886E+02  0.0000E+00  0.5653E+01  0.0000E+00  0.0000E+00  0.3844E+01  0.4678E+01  0.1261E+01  0.0000E+00  0.2126E+04  0.2936E+03  0.5371E+05  0.5444E+05  0.0000E+00  0.0000E+00  0.0000E+00  0.0000E+00  0.0000E+00  0.0000E+00  0.0000E+00  0.0000E+00  0.0000E+00  0.0000E+00  0.0000E+00  0.0000E+00  0.0000E+00  0.0000E+00  0.0000E+00  0.0000E+00  0.0000E+00  0.5993E+02  0.1606E+02  0.0000E+00  0.0000E+00
REACH    9        0     3  0.7907E+04  0.3041E+02  0.3041E+02  0.0000E+00  0.2782E+01  0.1227E+04  0.1261E+04  0.1548E+02  0.1555E+03  0.1500E+03  0.4576E+02  0.4330E+02  0.1754E+03  0.1784E+03  0.1118E+03  0.1158E+03  0.2160E+02  0.2309E+02  0.7831E+02  0.8064E+02  0.1591E+00  0.1067E+00  0.7433E+03  0.5542E+03  0.1098E+07  0.1103E+07  0.0000E+00  0.0000E+00  0.0000E+00  0.0000E+00  0.0000E+00  0.0000E+00  0.0000E+00  0.0000E+00  0.0000E+00  0.0000E+00  0.0000E+00  0.0000E+00  0.0000E+00  0.0000E+00  0.0000E+00  0.0000E+00  0.0000E+00  0.4672E+03  0.1239E+03  0.0000E+00  0.0000E+00
REACH   10        0     3  0.7875E+04  0.2295E+02  0.2295E+02  0.0000E+00  0.7191E+01  0.5822E+03  0.9846E+03  0.1602E+02  0.4185E-04  0.0000E+00  0.2347E-02  0.0000E+00  0.1041E+03  0.1071E+03  0.4851E+02  0.5488E+02  0.8368E+01  0.1017E+02  0.4190E-04  0.0000E+00  0.6931E-16  0.0000E+00  0.0000E+00  0.0000E+00  0.8335E+06  0.8337E+06  0.0000E+00  0.0000E+00  0.0000E+00  0.0000E+00  0.0000E+00  0.0000E+00  0.0000E+00  0.0000E+00  0.0000E+00  0.0000E+00  0.0000E+00  0.0000E+00  0.0000E+00  0.0000E+00  0.0000E+00  0.0000E+00  0.0000E+00  0.1721E+03  0.0000E+00  0.0000E+00  0.0000E+00
REACH   11        0     3  0.7315E+04  0.2204E+02  0.2204E+02  0.0000E+00  0.6952E+01  0.7754E+03  0.5822E+03  0.9863E+01  0.6008E-04  0.0000E+00  0.1802E-03  0.0000E+00  0.9883E+02  0.1012E+03  0.4240E+02  0.4600E+02  0.4477E+01  0.8368E+01  0.6014E-04  0.0000E+00  0.8719E-16  0.0000E+00  0.0000E+00  0.0000E+00  0.8006E+06  0.8006E+06  0.0000E+00  0.0000E+00  0.0000E+00  0.0000E+00  0.0000E+00  0.0000E+00  0.0000E+00  0.0000E+00  0.0000E+00  0.0000E+00  0.0000E+00  0.0000E+00  0.0000E+00  0.0000E+00  0.0000E+00  0.0000E+00  0.0000E+00  0.1556E+03  0.0000E+00  0.0000E+00  0.0000E+00
REACH   12        0     3  0.2522E+04  0.5201E+01  0.5201E+01  0.0000E+00  0.3141E+01  0.1077E+03  0.7619E+02  0.5469E+01  0.5404E-03  0.0000E+00  0.1621E-02  0.0000E+00  0.2308E+02  0.2346E+02  0.1124E+02  0.1241E+02  0.7092E+00  0.1999E+01  0.5409E-03  0.0000E+00  0.3310E-14  0.0000E+00  0.0000E+00  0.0000E+00  0.1891E+06  0.1890E+06  0.0000E+00  0.0000E+00  0.0000E+00  0.0000E+00  0.0000E+00  0.0000E+00  0.0000E+00  0.0000E+00  0.0000E+00  0.0000E+00  0.0000E+00  0.0000E+00  0.0000E+00  0.0000E+00  0.0000E+00  0.0000E+00  0.0000E+00  0.3787E+02  0.0000E+00  0.0000E+00  0.0000E+00
REACH   13        0     3  0.1667E+04  0.3712E+01  0.3712E+01  0.0000E+00  0.2523E+01  0.1046E-06  0.1077E+03  0.1083E+02  0.6326E-03  0.0000E+00  0.1898E-02  0.0000E+00  0.2885E+01  0.2885E+01  0.5303E+01  0.8482E+01  0.0000E+00  0.7092E+00  0.6335E-03  0.0000E+00  0.1755E-15  0.0000E+00  0.0000E+00  0.0000E+00  0.1359E+06  0.1349E+06  0.0000E+00  0.0000E+00  0.0000E+00  0.0000E+00  0.0000E+00  0.0000E+00  0.0000E+00  0.0000E+00  0.0000E+00  0.0000E+00  0.0000E+00  0.0000E+00  0.0000E+00  0.0000E+00  0.0000E+00  0.0000E+00  0.0000E+00  0.1208E+02  0.0000E+00  0.0000E+00  0.0000E+00
REACH   14        0     3  0.3021E+04  0.6446E+01  0.6528E+01  0.0000E+00  0.6446E+01  0.7619E+02  0.2494E+03  0.1426E+02  0.2393E-03  0.0000E+00  0.7178E-03  0.0000E+00  0.2432E+02  0.2570E+02  0.1430E+02  0.2068E+02  0.1999E+01  0.3089E+01  0.2396E-03  0.0000E+00  0.5427E-15  0.0000E+00  0.0000E+00  0.0000E+00  0.2342E+06  0.2372E+06  0.0000E+00  0.0000E+00  0.0000E+00  0.0000E+00  0.0000E+00  0.0000E+00  0.0000E+00  0.0000E+00  0.0000E+00  0.0000E+00  0.0000E+00  0.0000E+00  0.0000E+00  0.0000E+00  0.0000E+00  0.0000E+00  0.0000E+00  0.4947E+02  0.0000E+00  0.0000E+00  0.0000E+00
REACH   15        0     3  0.1079E+05  0.2866E+02  0.2901E+02  0.0000E+00  0.2866E+02  0.1137E+04  0.8165E+03  0.1051E+02  0.2149E-02  0.0000E+00  0.6447E-02  0.0000E+00  0.1138E+03  0.1207E+03  0.5880E+02  0.6431E+02  0.1040E+02  0.1382E+02  0.2156E-02  0.0000E+00  0.7552E-15  0.0000E+00  0.0000E+00  0.0000E+00  0.1043E+07  0.1050E+07  0.0000E+00  0.0000E+00  0.0000E+00  0.0000E+00  0.0000E+00  0.0000E+00  0.0000E+00  0.0000E+00  0.0000E+00  0.0000E+00  0.0000E+00  0.0000E+00  0.0000E+00  0.0000E+00  0.0000E+00  0.0000E+00  0.0000E+00  0.1989E+03  0.0000E+00  0.0000E+00  0.0000E+00
REACH   16        0     3  0.5981E+03  0.1659E+01  0.1682E+01  0.0000E+00  0.1659E+01  0.3546E-07  0.3546E-07  0.7874E-08  0.1063E-02  0.0000E+00  0.3188E-02  0.0000E+00  0.5631E+01  0.5709E+01  0.0000E+00  0.3211E+01  0.0000E+00  0.0000E+00  0.1064E-02  0.0000E+00  0.4836E-15  0.0000E+00  0.0000E+00  0.0000E+00  0.6153E+05  0.6084E+05  0.0000E+00  0.0000E+00  0.0000E+00  0.0000E+00  0.0000E+00  0.0000E+00  0.0000E+00  0.0000E+00  0.0000E+00  0.0000E+00  0.0000E+00  0.0000E+00  0.0000E+00  0.0000E+00  0.0000E+00  0.0000E+00  0.0000E+00  0.8919E+01  0.0000E+00  0.0000E+00  0.0000E+00
REACH   17        0     3  0.3904E+03  0.1063E+01  0.1076E+01  0.0000E+00  0.1063E+01  0.1189E-07  0.1189E-07  0.4125E-08  0.4549E-03  0.0000E+00  0.1365E-02  0.0000E+00  0.4561E-03  0.0000E+00  0.0000E+00  0.1892E+01  0.0000E+00  0.0000E+00  0.4561E-03  0.0000E+00  0.9682E-16  0.0000E+00  0.0000E+00  0.0000E+00  0.3812E+05  0.3892E+05  0.0000E+00  0.0000E+00  0.0000E+00  0.0000E+00  0.0000E+00  0.0000E+00  0.0000E+00  0.0000E+00  0.0000E+00  0.0000E+00  0.0000E+00  0.0000E+00  0.0000E+00  0.0000E+00  0.0000E+00  0.0000E+00  0.0000E+00  0.1892E+01  0.0000E+00  0.0000E+00  0.0000E+00
REACH   18        0     3  0.6898E+04  0.2823E+02  0.2823E+02  0.0000E+00  0.1864E+02  0.7966E+03  0.1177E+04  0.1557E+02  0.1215E+03  0.1049E+03  0.3577E+02  0.2844E+02  0.1434E+03  0.1519E+03  0.9292E+02  0.1062E+03  0.1573E+02  0.2160E+02  0.6556E+02  0.7264E+02  0.1012E+00  0.0000E+00  0.2411E+03  0.7903E+02  0.1020E+07  0.1020E+07  0.0000E+00  0.0000E+00  0.0000E+00  0.0000E+00  0.0000E+00  0.0000E+00  0.0000E+00  0.0000E+00  0.0000E+00  0.0000E+00  0.0000E+00  0.0000E+00  0.0000E+00  0.0000E+00  0.0000E+00  0.0000E+00  0.0000E+00  0.3846E+03  0.1011E+03  0.0000E+00  0.0000E+00
REACH   19        0     3  0.9547E+03  0.7167E+01  0.7237E+01  0.0000E+00  0.7167E+01  0.2102E+01  0.2102E+01  0.1081E+00  0.5674E+01  0.4685E+01  0.2143E+01  0.1625E+01  0.4692E+01  0.4697E+01  0.0000E+00  0.6760E+01  0.0000E+00  0.0000E+00  0.1697E+01  0.2086E+01  0.1302E-02  0.0000E+00  0.1281E+02  0.3955E+01  0.2623E+06  0.2617E+06  0.0000E+00  0.0000E+00  0.0000E+00  0.0000E+00  0.0000E+00  0.0000E+00  0.0000E+00  0.0000E+00  0.0000E+00  0.0000E+00  0.0000E+00  0.0000E+00  0.0000E+00  0.0000E+00  0.0000E+00  0.0000E+00  0.0000E+00  0.1614E+02  0.3711E+01  0.0000E+00  0.0000E+00
REACH   20        0     3  0.5457E+03  0.8636E+00  0.8753E+00  0.0000E+00  0.8636E+00  0.6044E-07  0.6044E-07  0.2579E-07  0.9964E-03  0.0000E+00  0.2989E-02  0.2222E-02  0.2777E+01  0.2814E+01  0.0000E+00  0.2516E+01  0.0000E+00  0.0000E+00  0.9981E-03  0.0000E+00  0.1594E-14  0.0000E+00  0.0000E+00  0.0000E+00  0.3203E+05  0.3167E+05  0.0000E+00  0.0000E+00  0.0000E+00  0.0000E+00  0.0000E+00  0.0000E+00  0.0000E+00  0.0000E+00  0.0000E+00  0.0000E+00  0.0000E+00  0.0000E+00  0.0000E+00  0.0000E+00  0.0000E+00  0.0000E+00  0.0000E+00  0.5330E+01  0.2222E-02  0.0000E+00  0.0000E+00
REACH   21        0     3  0.6738E+03  0.1017E+01  0.1031E+01  0.0000E+00  0.1017E+01  0.1060E-07  0.1060E-07  0.3840E-08  0.7080E-03  0.0000E+00  0.2124E-02  0.0000E+00  0.2426E+01  0.2459E+01  0.0000E+00  0.2756E+01  0.0000E+00  0.0000E+00  0.7101E-03  0.0000E+00  0.3896E-15  0.0000E+00  0.0000E+00  0.0000E+00  0.3690E+05  0.3730E+05  0.0000E+00  0.0000E+00  0.0000E+00  0.0000E+00  0.0000E+00  0.0000E+00  0.0000E+00  0.0000E+00  0.0000E+00  0.0000E+00  0.0000E+00  0.0000E+00  0.0000E+00  0.0000E+00  0.0000E+00  0.0000E+00  0.0000E+00  0.5215E+01  0.0000E+00  0.0000E+00  0.0000E+00
REACH   22        0     3  0.5769E+04  0.2066E+02  0.2066E+02  0.0000E+00  0.1044E+02  0.5801E+03  0.7924E+03  0.1431E+02  0.1302E+03  0.1123E+03  0.4083E+02  0.3246E+02  0.1292E+03  0.1347E+03  0.7138E+02  0.8616E+02  0.1016E+02  0.1573E+02  0.5465E+02  0.6242E+02  0.1132E+00  0.0000E+00  0.4235E+03  0.1388E+03  0.7498E+06  0.7466E+06  0.0000E+00  0.0000E+00  0.0000E+00  0.0000E+00  0.0000E+00  0.0000E+00  0.0000E+00  0.0000E+00  0.0000E+00  0.0000E+00  0.0000E+00  0.0000E+00  0.0000E+00  0.0000E+00  0.0000E+00  0.0000E+00  0.0000E+00  0.3489E+03  0.9488E+02  0.0000E+00  0.0000E+00
REACH   23        0     3  0.4669E+04  0.1390E+02  0.1390E+02  0.0000E+00  0.7112E+00  0.5763E+03  0.4480E+03  0.1203E+02  0.7795E+02  0.7664E+02  0.2456E+02  0.2394E+02  0.1050E+03  0.1053E+03  0.5302E+02  0.5411E+02  0.3799E+01  0.4538E+01  0.4127E+02  0.4186E+02  0.1600E-02  0.1300E-02  0.3160E+03  0.2750E+03  0.5037E+06  0.5044E+06  0.0000E+00  0.0000E+00  0.0000E+00  0.0000E+00  0.0000E+00  0.0000E+00  0.0000E+00  0.0000E+00  0.0000E+00  0.0000E+00  0.0000E+00  0.0000E+00  0.0000E+00  0.0000E+00  0.0000E+00  0.0000E+00  0.0000E+00  0.2405E+03  0.6580E+02  0.0000E+00  0.0000E+00
REACH   24        0     3  0.5126E+04  0.1742E+02  0.1742E+02  0.0000E+00  0.1586E+02  0.4606E+03  0.5644E+03  0.1210E+02  0.1021E+03  0.8763E+02  0.3297E+02  0.2594E+02  0.1135E+03  0.1160E+03  0.5411E+02  0.6630E+02  0.4538E+01  0.1016E+02  0.4265E+02  0.4913E+02  0.1483E-01  0.0000E+00  0.3956E+03  0.1235E+03  0.6341E+06  0.6320E+06  0.0000E+00  0.0000E+00  0.0000E+00  0.0000E+00  0.0000E+00  0.0000E+00  0.0000E+00  0.0000E+00  0.0000E+00  0.0000E+00  0.0000E+00  0.0000E+00  0.0000E+00  0.0000E+00  0.0000E+00  0.0000E+00  0.0000E+00  0.2801E+03  0.7507E+02  0.0000E+00  0.0000E+00
REACH   25        0     3  0.4107E+03  0.2567E+01  0.2568E+01  0.0000E+00  0.1643E+01  0.9112E+01  0.9112E+01  0.1075E+01  0.3486E+02  0.3138E+02  0.1240E+02  0.1055E+02  0.6998E+01  0.6985E+01  0.0000E+00  0.5085E+01  0.0000E+00  0.0000E+00  0.2700E+01  0.4319E+01  0.4616E-01  0.0000E+00  0.1376E+03  0.6035E+02  0.9362E+05  0.9307E+05  0.0000E+00  0.0000E+00  0.0000E+00  0.0000E+00  0.0000E+00  0.0000E+00  0.0000E+00  0.0000E+00  0.0000E+00  0.0000E+00  0.0000E+00  0.0000E+00  0.0000E+00  0.0000E+00  0.0000E+00  0.0000E+00  0.0000E+00  0.4345E+02  0.1487E+02  0.0000E+00  0.0000E+00
REACH   26        0     3  0.1922E+04  0.6423E+01  0.6410E+01  0.0000E+00  0.6423E+01  0.1014E+02  0.2861E+03  0.1666E+02  0.2294E+02  0.1775E+02  0.8101E+01  0.5742E+01  0.3821E+02  0.3543E+02  0.8495E+01  0.1656E+02  0.0000E+00  0.1282E+01  0.1654E+02  0.1672E+02  0.4168E-01  0.0000E+00  0.1215E+03  0.3035E+02  0.2352E+06  0.2326E+06  0.0000E+00  0.0000E+00  0.0000E+00  0.0000E+00  0.0000E+00  0.0000E+00  0.0000E+00  0.0000E+00  0.0000E+00  0.0000E+00  0.0000E+00  0.0000E+00  0.0000E+00  0.0000E+00  0.0000E+00  0.0000E+00  0.0000E+00  0.7103E+02  0.2246E+02  0.0000E+00  0.0000E+00
REACH   27        0     3  0.3795E+03  0.1176E+01  0.1181E+01  0.0000E+00  0.1157E+01  0.2391E+01  0.2391E+01  0.5848E+00  0.6452E+01  0.5074E+01  0.2348E+01  0.1727E+01  0.8582E+01  0.7594E+01  0.0000E+00  0.2737E+01  0.0000E+00  0.0000E+00  0.3384E+01  0.3358E+01  0.5888E-01  0.0000E+00  0.7165E+02  0.2561E+02  0.4373E+05  0.4275E+05  0.0000E+00  0.0000E+00  0.0000E+00  0.0000E+00  0.0000E+00  0.0000E+00  0.0000E+00  0.0000E+00  0.0000E+00  0.0000E+00  0.0000E+00  0.0000E+00  0.0000E+00  0.0000E+00  0.0000E+00  0.0000E+00  0.0000E+00  0.1541E+02  0.5085E+01  0.0000E+00  0.0000E+00
REACH   28        0     3  0.1402E+04  0.2342E+01  0.2373E+01  0.0000E+00  0.2342E+01  0.9037E-08  0.9037E-08  0.1422E-08  0.1201E-02  0.0000E+00  0.3604E-02  0.0000E+00  0.1205E-02  0.0000E+00  0.0000E+00  0.5303E+01  0.0000E+00  0.0000E+00  0.1205E-02  0.0000E+00  0.3924E-15  0.0000E+00  0.0000E+00  0.0000E+00  0.8126E+05  0.8621E+05  0.0000E+00  0.0000E+00  0.0000E+00  0.0000E+00  0.0000E+00  0.0000E+00  0.0000E+00  0.0000E+00  0.0000E+00  0.0000E+00  0.0000E+00  0.0000E+00  0.0000E+00  0.0000E+00  0.0000E+00  0.0000E+00  0.0000E+00  0.5303E+01  0.0000E+00  0.0000E+00  0.0000E+00
REACH   29        0     3  0.2745E+04  0.7523E+01  0.7488E+01  0.0000E+00  0.7523E+01  0.3050E+03  0.2902E+03  0.1446E+02  0.7996E+02  0.6018E+02  0.2726E+02  0.1881E+02  0.7309E+02  0.6952E+02  0.2606E+02  0.3645E+02  0.8657E+00  0.2517E+01  0.2219E+02  0.2454E+02  0.4215E+00  0.0000E+00  0.1122E+04  0.2849E+03  0.2721E+06  0.2709E+06  0.0000E+00  0.0000E+00  0.0000E+00  0.0000E+00  0.0000E+00  0.0000E+00  0.0000E+00  0.0000E+00  0.0000E+00  0.0000E+00  0.0000E+00  0.0000E+00  0.0000E+00  0.0000E+00  0.0000E+00  0.0000E+00  0.0000E+00  0.1687E+03  0.4335E+02  0.0000E+00  0.0000E+00
REACH   30        0     3  0.1951E+04  0.6064E+01  0.6064E+01  0.0000E+00  0.3185E+01  0.2083E+03  0.2720E+03  0.1672E+02  0.2891E+02  0.2625E+02  0.9841E+01  0.8473E+01  0.4409E+02  0.4418E+02  0.1547E+02  0.2081E+02  0.2886E+00  0.8657E+00  0.1616E+02  0.1757E+02  0.5333E-01  0.0000E+00  0.2296E+03  0.1100E+03  0.2198E+06  0.2198E+06  0.0000E+00  0.0000E+00  0.0000E+00  0.0000E+00  0.0000E+00  0.0000E+00  0.0000E+00  0.0000E+00  0.0000E+00  0.0000E+00  0.0000E+00  0.0000E+00  0.0000E+00  0.0000E+00  0.0000E+00  0.0000E+00  0.0000E+00  0.9210E+02  0.2605E+02  0.0000E+00  0.0000E+00
REACH   31        0     3  0.9692E+03  0.2993E+01  0.2995E+01  0.0000E+00  0.2993E+01  0.4396E+01  0.4396E+01  0.5312E+00  0.1147E+02  0.7984E+01  0.4248E+01  0.2683E+01  0.2078E+02  0.1711E+02  0.0000E+00  0.5758E+01  0.0000E+00  0.0000E+00  0.9002E+01  0.8208E+01  0.1207E+00  0.0000E+00  0.1191E+03  0.2407E+02  0.1114E+06  0.1087E+06  0.0000E+00  0.0000E+00  0.0000E+00  0.0000E+00  0.0000E+00  0.0000E+00  0.0000E+00  0.0000E+00  0.0000E+00  0.0000E+00  0.0000E+00  0.0000E+00  0.0000E+00  0.0000E+00  0.0000E+00  0.0000E+00  0.0000E+00  0.3085E+02  0.1089E+02  0.0000E+00  0.0000E+00
REACH   32        0     3  0.4648E+03  0.1451E+01  0.1463E+01  0.0000E+00  0.1389E+01  0.2941E+01  0.2941E+01  0.5204E+00  0.7685E+01  0.6913E+01  0.2851E+01  0.2425E+01  0.1297E+02  0.1286E+02  0.0000E+00  0.2750E+01  0.0000E+00  0.0000E+00  0.3800E+01  0.4193E+01  0.6384E-01  0.0000E+00  0.8584E+02  0.4030E+02  0.5322E+05  0.5286E+05  0.0000E+00  0.0000E+00  0.0000E+00  0.0000E+00  0.0000E+00  0.0000E+00  0.0000E+00  0.0000E+00  0.0000E+00  0.0000E+00  0.0000E+00  0.0000E+00  0.0000E+00  0.0000E+00  0.0000E+00  0.0000E+00  0.0000E+00  0.2252E+02  0.6618E+01  0.0000E+00  0.0000E+00
REACH   33        0     3  0.6036E+03  0.1092E+01  0.1088E+01  0.0000E+00  0.1092E+01  0.1622E+02  0.1622E+02  0.5221E+01  0.3931E+02  0.2422E+02  0.1516E+02  0.8598E+01  0.2527E+02  0.2265E+02  0.0000E+00  0.5255E+01  0.0000E+00  0.0000E+00  0.2739E+01  0.3793E+01  0.3717E+00  0.0000E+00  0.6058E+03  0.1003E+03  0.3905E+05  0.3921E+05  0.0000E+00  0.0000E+00  0.0000E+00  0.0000E+00  0.0000E+00  0.0000E+00  0.0000E+00  0.0000E+00  0.0000E+00  0.0000E+00  0.0000E+00  0.0000E+00  0.0000E+00  0.0000E+00  0.0000E+00  0.0000E+00  0.0000E+00  0.5213E+02  0.1239E+02  0.0000E+00  0.0000E+00
REACH   34        0     3  0.1464E+04  0.4522E+01  0.4528E+01  0.0000E+00  0.4522E+01  0.5985E+02  0.2013E+03  0.1658E+02  0.2713E+02  0.1742E+02  0.9627E+01  0.5650E+01  0.3682E+02  0.2999E+02  0.5475E+01  0.1272E+02  0.1071E+00  0.2886E+00  0.1345E+02  0.1183E+02  0.5353E-01  0.0000E+00  0.2206E+03  0.4264E+02  0.1644E+06  0.1643E+06  0.0000E+00  0.0000E+00  0.0000E+00  0.0000E+00  0.0000E+00  0.0000E+00  0.0000E+00  0.0000E+00  0.0000E+00  0.0000E+00  0.0000E+00  0.0000E+00  0.0000E+00  0.0000E+00  0.0000E+00  0.0000E+00  0.0000E+00  0.6042E+02  0.1748E+02  0.0000E+00  0.0000E+00
REACH   35        0     3  0.5003E+03  0.1539E+01  0.1539E+01  0.0000E+00  0.1253E+01  0.3099E+01  0.3099E+01  0.4750E+00  0.6641E+01  0.6134E+01  0.2482E+01  0.2181E+01  0.1203E+02  0.1200E+02  0.0000E+00  0.2335E+01  0.0000E+00  0.0000E+00  0.4431E+01  0.4744E+01  0.9535E-01  0.0000E+00  0.9306E+02  0.4919E+02  0.5632E+05  0.5551E+05  0.0000E+00  0.0000E+00  0.0000E+00  0.0000E+00  0.0000E+00  0.0000E+00  0.0000E+00  0.0000E+00  0.0000E+00  0.0000E+00  0.0000E+00  0.0000E+00  0.0000E+00  0.0000E+00  0.0000E+00  0.0000E+00  0.0000E+00  0.2046E+02  0.6925E+01  0.0000E+00  0.0000E+00
REACH   36        0     3  0.5412E+03  0.1665E+01  0.1665E+01  0.0000E+00  0.6244E+00  0.7269E+01  0.5419E+02  0.1202E+02  0.1443E+02  0.1368E+02  0.5135E+01  0.4735E+01  0.1335E+02  0.1333E+02  0.1733E+01  0.3141E+01  0.0000E+00  0.1071E+00  0.4785E+01  0.5148E+01  0.1866E-01  0.5186E-02  0.1544E+03  0.1038E+03  0.5994E+05  0.6000E+05  0.0000E+00  0.0000E+00  0.0000E+00  0.0000E+00  0.0000E+00  0.0000E+00  0.0000E+00  0.0000E+00  0.0000E+00  0.0000E+00  0.0000E+00  0.0000E+00  0.0000E+00  0.0000E+00  0.0000E+00  0.0000E+00  0.0000E+00  0.3026E+02  0.9883E+01  0.0000E+00  0.0000E+00
REACH   37        0     3  0.5332E+03  0.1640E+01  0.1640E+01  0.0000E+00  0.7305E+00  0.7210E+01  0.7210E+01  0.1007E+01  0.1511E+02  0.1432E+02  0.5543E+01  0.5095E+01  0.1316E+02  0.1314E+02  0.0000E+00  0.1733E+01  0.0000E+00  0.0000E+00  0.4308E+01  0.4714E+01  0.1456E+00  0.1613E-01  0.2307E+03  0.1522E+03  0.5970E+05  0.5902E+05  0.0000E+00  0.0000E+00  0.0000E+00  0.0000E+00  0.0000E+00  0.0000E+00  0.0000E+00  0.0000E+00  0.0000E+00  0.0000E+00  0.0000E+00  0.0000E+00  0.0000E+00  0.0000E+00  0.0000E+00  0.0000E+00  0.0000E+00  0.2920E+02  0.9809E+01  0.0000E+00  0.0000E+00
REACH    1        0     4  0.3585E+03  0.1985E+01  0.1985E+01  0.6593E-06  0.9196E-01  0.7104E+00  0.7104E+00  0.1341E+00  0.1705E+01  0.1684E+01  0.6659E+00  0.6520E+00  0.1824E+02  0.1824E+02  0.0000E+00  0.2213E+00  0.0000E+00  0.0000E+00  0.1918E+00  0.2048E+00  0.2829E-03  0.2301E-03  0.3239E+01  0.2947E+01  0.5945E+05  0.5947E+05  0.0000E+00  0.0000E+00  0.0000E+00  0.0000E+00  0.0000E+00  0.0000E+00  0.0000E+00  0.0000E+00  0.0000E+00  0.0000E+00  0.0000E+00  0.0000E+00  0.0000E+00  0.0000E+00  0.0000E+00  0.0000E+00  0.0000E+00  0.2015E+02  0.8568E+00  0.0000E+00  0.0000E+00
REACH    2        0     4  0.9587E+03  0.6138E+01  0.5565E+01  0.3188E-04  0.3288E+01  0.6632E+03  0.6632E+03  0.2655E+02  0.1742E+04  0.1433E+04  0.6751E+03  0.4862E+03  0.2732E+04  0.2397E+04  0.0000E+00  0.1960E+03  0.0000E+00  0.0000E+00  0.1851E+03  0.2841E+03  0.1204E+03  0.2574E+01  0.4007E+05  0.1106E+05  0.1482E+06  0.1302E+06  0.0000E+00  0.0000E+00  0.0000E+00  0.0000E+00  0.0000E+00  0.0000E+00  0.0000E+00  0.0000E+00  0.0000E+00  0.0000E+00  0.0000E+00  0.0000E+00  0.0000E+00  0.0000E+00  0.0000E+00  0.0000E+00  0.0000E+00  0.4026E+04  0.7703E+03  0.0000E+00  0.0000E+00
REACH    3        0     4  0.1500E+04  0.8582E+01  0.8680E+01  0.0000E+00  0.8582E+01  0.2083E-07  0.2083E-07  0.9257E-09  0.1541E-02  0.0000E+00  0.4623E-02  0.0000E+00  0.3513E+02  0.3551E+02  0.0000E+00  0.8886E+01  0.0000E+00  0.0000E+00  0.1546E-02  0.0000E+00  0.6081E-16  0.0000E+00  0.0000E+00  0.0000E+00  0.2591E+06  0.2601E+06  0.0000E+00  0.0000E+00  0.0000E+00  0.0000E+00  0.0000E+00  0.0000E+00  0.0000E+00  0.0000E+00  0.0000E+00  0.0000E+00  0.0000E+00  0.0000E+00  0.0000E+00  0.0000E+00  0.0000E+00  0.0000E+00  0.0000E+00  0.4439E+02  0.0000E+00  0.0000E+00  0.0000E+00
REACH    4        0     4  0.2280E+04  0.1268E+02  0.1071E+02  0.9297E-04  0.1102E+02  0.1151E+04  0.5189E+03  0.1641E+02  0.2727E+04  0.1882E+04  0.9883E+03  0.6067E+03  0.4685E+04  0.3644E+04  0.1962E+03  0.3982E+03  0.0000E+00  0.3677E+02  0.4325E+03  0.4989E+03  0.9055E+02  0.6585E+00  0.3969E+05  0.8215E+04  0.3203E+06  0.2898E+06  0.0000E+00  0.0000E+00  0.0000E+00  0.0000E+00  0.0000E+00  0.0000E+00  0.0000E+00  0.0000E+00  0.0000E+00  0.0000E+00  0.0000E+00  0.0000E+00  0.0000E+00  0.0000E+00  0.0000E+00  0.0000E+00  0.0000E+00  0.5961E+04  0.1106E+04  0.0000E+00  0.0000E+00
REACH    5        0     4  0.8507E+04  0.4116E+02  0.4116E+02  0.7137E-05  0.8477E+00  0.2100E+04  0.2347E+04  0.2046E+02  0.6603E+04  0.6552E+04  0.1583E+04  0.1565E+04  0.1195E+05  0.1196E+05  0.1815E+04  0.1835E+04  0.3374E+03  0.3464E+03  0.2578E+04  0.2594E+04  0.1148E+01  0.1101E+01  0.1000E+05  0.9483E+04  0.1209E+07  0.1217E+07  0.0000E+00  0.0000E+00  0.0000E+00  0.0000E+00  0.0000E+00  0.0000E+00  0.0000E+00  0.0000E+00  0.0000E+00  0.0000E+00  0.0000E+00  0.0000E+00  0.0000E+00  0.0000E+00  0.0000E+00  0.0000E+00  0.0000E+00  0.2070E+05  0.4159E+04  0.0000E+00  0.0000E+00
REACH    6        0     4  0.4274E+04  0.2256E+02  0.2254E+02  0.8577E-04  0.1043E+02  0.8585E+03  0.8993E+03  0.1459E+02  0.2775E+04  0.2377E+04  0.9531E+03  0.7268E+03  0.5066E+04  0.5069E+04  0.4071E+03  0.6759E+03  0.3677E+02  0.1028E+03  0.5979E+03  0.7953E+03  0.6218E+02  0.1389E+01  0.2881E+05  0.7792E+04  0.6281E+06  0.6415E+06  0.0000E+00  0.0000E+00  0.0000E+00  0.0000E+00  0.0000E+00  0.0000E+00  0.0000E+00  0.0000E+00  0.0000E+00  0.0000E+00  0.0000E+00  0.0000E+00  0.0000E+00  0.0000E+00  0.0000E+00  0.0000E+00  0.0000E+00  0.8225E+04  0.1522E+04  0.0000E+00  0.0000E+00
REACH    7        0     4  0.1876E+05  0.1533E+03  0.1533E+03  0.1760E-06  0.1256E+02  0.1034E+05  0.1034E+05  0.2136E+02  0.3508E+05  0.3286E+05  0.9669E+04  0.8734E+04  0.3182E+05  0.3237E+05  0.1070E+05  0.1145E+05  0.2116E+04  0.2561E+04  0.1266E+05  0.1345E+05  0.2091E+03  0.1574E+03  0.1837E+06  0.1135E+06  0.4190E+07  0.4310E+07  0.0000E+00  0.0000E+00  0.0000E+00  0.0000E+00  0.0000E+00  0.0000E+00  0.0000E+00  0.0000E+00  0.0000E+00  0.0000E+00  0.0000E+00  0.0000E+00  0.0000E+00  0.0000E+00  0.0000E+00  0.0000E+00  0.0000E+00  0.7924E+05  0.2219E+05  0.0000E+00  0.0000E+00
REACH    8        0     4  0.8185E+03  0.1513E+02  0.1363E+02  0.0000E+00  0.7913E+01  0.5194E+04  0.5194E+04  0.1018E+03  0.1169E+05  0.8545E+04  0.4101E+04  0.2627E+04  0.2844E+04  0.2684E+04  0.0000E+00  0.1313E+04  0.0000E+00  0.0000E+00  0.5025E+03  0.1147E+04  0.5139E+03  0.7062E+02  0.4200E+06  0.8063E+05  0.2352E+06  0.2196E+06  0.0000E+00  0.0000E+00  0.0000E+00  0.0000E+00  0.0000E+00  0.0000E+00  0.0000E+00  0.0000E+00  0.0000E+00  0.0000E+00  0.0000E+00  0.0000E+00  0.0000E+00  0.0000E+00  0.0000E+00  0.0000E+00  0.0000E+00  0.1254E+05  0.3774E+04  0.0000E+00  0.0000E+00
REACH    9        0     4  0.7907E+04  0.1074E+03  0.1074E+03  0.1056E-06  0.2815E+01  0.1311E+05  0.8577E+04  0.2354E+02  0.2701E+05  0.2643E+05  0.7679E+04  0.7430E+04  0.1796E+05  0.1811E+05  0.8226E+04  0.8413E+04  0.1601E+04  0.1720E+04  0.9676E+04  0.9887E+04  0.1929E+03  0.1783E+03  0.1712E+06  0.1456E+06  0.2824E+07  0.2956E+07  0.0000E+00  0.0000E+00  0.0000E+00  0.0000E+00  0.0000E+00  0.0000E+00  0.0000E+00  0.0000E+00  0.0000E+00  0.0000E+00  0.0000E+00  0.0000E+00  0.0000E+00  0.0000E+00  0.0000E+00  0.0000E+00  0.0000E+00  0.5467E+05  0.1732E+05  0.0000E+00  0.0000E+00
REACH   10        0     4  0.7875E+04  0.3837E+02  0.3836E+02  0.6314E-04  0.7213E+01  0.1220E+04  0.2065E+04  0.1932E+02  0.7005E+04  0.6498E+04  0.1738E+04  0.1549E+04  0.1159E+05  0.1167E+05  0.1570E+04  0.1799E+04  0.2481E+03  0.3374E+03  0.2351E+04  0.2510E+04  0.2199E+01  0.1148E+01  0.1551E+05  0.9311E+04  0.1104E+07  0.1127E+07  0.0000E+00  0.0000E+00  0.0000E+00  0.0000E+00  0.0000E+00  0.0000E+00  0.0000E+00  0.0000E+00  0.0000E+00  0.0000E+00  0.0000E+00  0.0000E+00  0.0000E+00  0.0000E+00  0.0000E+00  0.0000E+00  0.0000E+00  0.2031E+05  0.4059E+04  0.0000E+00  0.0000E+00
REACH   11        0     4  0.7315E+04  0.3561E+02  0.3560E+02  0.6038E-04  0.6985E+01  0.1608E+04  0.1154E+04  0.1171E+02  0.7797E+04  0.6851E+04  0.2069E+04  0.1691E+04  0.1057E+05  0.1063E+05  0.1000E+04  0.1546E+04  0.1331E+03  0.2481E+03  0.1915E+04  0.2233E+04  0.2191E+01  0.1011E+01  0.3480E+05  0.1453E+05  0.9665E+06  0.1026E+07  0.0000E+00  0.0000E+00  0.0000E+00  0.0000E+00  0.0000E+00  0.0000E+00  0.0000E+00  0.0000E+00  0.0000E+00  0.0000E+00  0.0000E+00  0.0000E+00  0.0000E+00  0.0000E+00  0.0000E+00  0.0000E+00  0.0000E+00  0.1928E+05  0.3924E+04  0.0000E+00  0.0000E+00
REACH   12        0     4  0.2522E+04  0.1176E+02  0.1175E+02  0.2650E-04  0.3185E+01  0.4980E+04  0.2459E+03  0.7300E+01  0.7673E+04  0.6768E+04  0.2340E+04  0.1848E+04  0.5729E+04  0.5643E+04  0.6238E+02  0.1493E+03  0.4367E+01  0.1295E+02  0.4306E+03  0.7709E+03  0.3202E+03  0.5566E+02  0.3187E+06  0.9663E+05  0.3393E+06  0.2452E+06  0.0000E+00  0.0000E+00  0.0000E+00  0.0000E+00  0.0000E+00  0.0000E+00  0.0000E+00  0.0000E+00  0.0000E+00  0.0000E+00  0.0000E+00  0.0000E+00  0.0000E+00  0.0000E+00  0.0000E+00  0.0000E+00  0.0000E+00  0.1257E+05  0.2619E+04  0.0000E+00  0.0000E+00
REACH   13        0     4  0.1667E+04  0.7891E+01  0.7883E+01  0.2200E-04  0.2542E+01  0.6222E+02  0.3181E+03  0.1427E+02  0.2049E+03  0.1844E+03  0.6054E+02  0.5147E+02  0.2632E+04  0.2629E+04  0.2993E+02  0.4688E+02  0.0000E+00  0.4367E+01  0.2662E+03  0.2739E+03  0.1348E+00  0.3284E-01  0.6724E+03  0.3212E+03  0.2337E+06  0.2342E+06  0.0000E+00  0.0000E+00  0.0000E+00  0.0000E+00  0.0000E+00  0.0000E+00  0.0000E+00  0.0000E+00  0.0000E+00  0.0000E+00  0.0000E+00  0.0000E+00  0.0000E+00  0.0000E+00  0.0000E+00  0.0000E+00  0.0000E+00  0.2865E+04  0.3254E+03  0.0000E+00  0.0000E+00
REACH   14        0     4  0.3021E+04  0.1409E+02  0.1295E+02  0.9686E-04  0.9475E+01  0.2719E+03  0.7061E+03  0.1902E+02  0.6849E+04  0.5413E+04  0.1877E+04  0.1339E+04  0.6077E+04  0.5474E+04  0.1538E+03  0.3242E+03  0.1295E+02  0.3023E+02  0.8392E+03  0.1118E+04  0.6244E+02  0.0000E+00  0.9803E+05  0.2683E+05  0.3133E+06  0.3217E+06  0.0000E+00  0.0000E+00  0.0000E+00  0.0000E+00  0.0000E+00  0.0000E+00  0.0000E+00  0.0000E+00  0.0000E+00  0.0000E+00  0.0000E+00  0.0000E+00  0.0000E+00  0.0000E+00  0.0000E+00  0.0000E+00  0.0000E+00  0.1124E+05  0.2458E+04  0.0000E+00  0.0000E+00
REACH   15        0     4  0.1079E+05  0.5474E+02  0.4523E+02  0.0000E+00  0.5395E+02  0.4472E+04  0.1637E+04  0.1323E+02  0.1331E+05  0.8377E+04  0.3775E+04  0.2140E+04  0.1762E+05  0.1369E+05  0.1835E+04  0.2286E+04  0.3464E+03  0.3962E+03  0.2974E+04  0.2754E+04  0.3209E+03  0.2291E+02  0.1650E+06  0.2993E+05  0.1507E+07  0.1220E+07  0.0000E+00  0.0000E+00  0.0000E+00  0.0000E+00  0.0000E+00  0.0000E+00  0.0000E+00  0.0000E+00  0.0000E+00  0.0000E+00  0.0000E+00  0.0000E+00  0.0000E+00  0.0000E+00  0.0000E+00  0.0000E+00  0.0000E+00  0.2475E+05  0.4895E+04  0.0000E+00  0.0000E+00
REACH   16        0     4  0.5981E+03  0.2753E+01  0.2619E+01  0.1233E-04  0.2046E+01  0.3558E+02  0.3558E+02  0.3015E+01  0.1246E+03  0.1047E+03  0.4471E+02  0.3403E+02  0.2993E+03  0.2795E+03  0.0000E+00  0.1668E+02  0.0000E+00  0.0000E+00  0.6642E+02  0.6838E+02  0.6257E+01  0.0000E+00  0.1894E+04  0.6937E+03  0.8214E+05  0.7564E+05  0.0000E+00  0.0000E+00  0.0000E+00  0.0000E+00  0.0000E+00  0.0000E+00  0.0000E+00  0.0000E+00  0.0000E+00  0.0000E+00  0.0000E+00  0.0000E+00  0.0000E+00  0.0000E+00  0.0000E+00  0.0000E+00  0.0000E+00  0.4009E+03  0.1024E+03  0.0000E+00  0.0000E+00
REACH   17        0     4  0.3904E+03  0.1719E+01  0.1683E+01  0.9236E-05  0.1146E+01  0.7514E+01  0.7514E+01  0.1079E+01  0.2703E+02  0.2577E+02  0.1049E+02  0.9184E+01  0.2506E+03  0.2427E+03  0.0000E+00  0.4534E+01  0.0000E+00  0.0000E+00  0.4071E+02  0.4088E+02  0.3605E+01  0.2614E-03  0.2879E+03  0.1488E+03  0.5052E+05  0.4955E+05  0.0000E+00  0.0000E+00  0.0000E+00  0.0000E+00  0.0000E+00  0.0000E+00  0.0000E+00  0.0000E+00  0.0000E+00  0.0000E+00  0.0000E+00  0.0000E+00  0.0000E+00  0.0000E+00  0.0000E+00  0.0000E+00  0.0000E+00  0.2730E+03  0.5006E+02  0.0000E+00  0.0000E+00
REACH   18        0     4  0.6898E+04  0.9081E+02  0.9075E+02  0.3468E-06  0.1886E+02  0.6645E+04  0.6947E+04  0.2287E+02  0.1945E+05  0.1664E+05  0.5586E+04  0.4343E+04  0.1455E+05  0.1508E+05  0.5990E+04  0.6913E+04  0.8983E+03  0.1601E+04  0.7379E+04  0.8433E+04  0.1330E+03  0.5504E+02  0.8713E+05  0.2802E+05  0.2475E+07  0.2551E+07  0.0000E+00  0.0000E+00  0.0000E+00  0.0000E+00  0.0000E+00  0.0000E+00  0.0000E+00  0.0000E+00  0.0000E+00  0.0000E+00  0.0000E+00  0.0000E+00  0.0000E+00  0.0000E+00  0.0000E+00  0.0000E+00  0.0000E+00  0.4024E+05  0.1278E+05  0.0000E+00  0.0000E+00
REACH   19        0     4  0.9547E+03  0.9724E+01  0.9687E+01  0.0000E+00  0.7610E+01  0.3350E+03  0.3350E+03  0.5868E+01  0.1006E+04  0.8031E+03  0.3871E+03  0.2708E+03  0.7426E+02  0.6710E+02  0.0000E+00  0.1423E+03  0.0000E+00  0.0000E+00  0.1654E+03  0.2409E+03  0.2176E+02  0.0000E+00  0.1802E+05  0.4300E+04  0.2745E+06  0.2673E+06  0.0000E+00  0.0000E+00  0.0000E+00  0.0000E+00  0.0000E+00  0.0000E+00  0.0000E+00  0.0000E+00  0.0000E+00  0.0000E+00  0.0000E+00  0.0000E+00  0.0000E+00  0.0000E+00  0.0000E+00  0.0000E+00  0.0000E+00  0.1012E+04  0.5118E+03  0.0000E+00  0.0000E+00
REACH   20        0     4  0.5457E+03  0.3349E+01  0.2687E+01  0.3462E-04  0.2917E+01  0.6435E+02  0.6435E+02  0.6528E+01  0.1922E+03  0.1440E+03  0.7247E+02  0.4453E+02  0.1222E+04  0.9211E+03  0.0000E+00  0.2401E+02  0.0000E+00  0.0000E+00  0.1412E+03  0.1147E+03  0.3875E+02  0.0000E+00  0.4058E+04  0.6870E+03  0.9707E+05  0.7609E+05  0.0000E+00  0.0000E+00  0.0000E+00  0.0000E+00  0.0000E+00  0.0000E+00  0.0000E+00  0.0000E+00  0.0000E+00  0.0000E+00  0.0000E+00  0.0000E+00  0.0000E+00  0.0000E+00  0.0000E+00  0.0000E+00  0.0000E+00  0.1089E+04  0.1592E+03  0.0000E+00  0.0000E+00
REACH   21        0     4  0.6738E+03  0.3892E+01  0.3013E+01  0.3315E-04  0.3542E+01  0.2470E+02  0.2470E+02  0.2393E+01  0.9818E+02  0.8601E+02  0.3512E+02  0.2450E+02  0.1083E+04  0.8352E+03  0.0000E+00  0.1550E+02  0.0000E+00  0.0000E+00  0.1734E+03  0.1335E+03  0.3132E+02  0.0000E+00  0.1536E+04  0.2776E+03  0.1140E+06  0.8760E+05  0.0000E+00  0.0000E+00  0.0000E+00  0.0000E+00  0.0000E+00  0.0000E+00  0.0000E+00  0.0000E+00  0.0000E+00  0.0000E+00  0.0000E+00  0.0000E+00  0.0000E+00  0.0000E+00  0.0000E+00  0.0000E+00  0.0000E+00  0.9367E+03  0.1580E+03  0.0000E+00  0.0000E+00
REACH   22        0     4  0.5769E+04  0.7793E+02  0.7789E+02  0.7933E-06  0.1058E+02  0.5936E+04  0.5970E+04  0.2212E+02  0.1982E+05  0.1780E+05  0.5931E+04  0.4997E+04  0.1387E+05  0.1401E+05  0.5017E+04  0.5848E+04  0.3607E+03  0.8983E+03  0.6211E+04  0.7002E+04  0.1457E+03  0.8691E+02  0.1290E+06  0.5895E+05  0.2011E+07  0.2133E+07  0.0000E+00  0.0000E+00  0.0000E+00  0.0000E+00  0.0000E+00  0.0000E+00  0.0000E+00  0.0000E+00  0.0000E+00  0.0000E+00  0.0000E+00  0.0000E+00  0.0000E+00  0.0000E+00  0.0000E+00  0.0000E+00  0.0000E+00  0.3856E+05  0.1200E+05  0.0000E+00  0.0000E+00
[...]
REACH    5        0   5.0  0.8507E+04  0.8529E+02  0.8529E+02  0.3142E-02  0.8609E+00  0.9206E+05  0.1056E+06  0.2408E+02  0.2648E+06  0.2633E+06  0.6306E+05  0.6251E+05  0.1990E+06  0.1995E+06  0.7186E+05  0.7229E+05  0.1887E+05  0.1917E+05  0.1046E+06  0.1051E+06  0.1176E+04  0.1157E+04  0.4787E+06  0.4603E+06  0.2683E+08  0.2713E+08  0.0000E+00  0.0000E+00  0.0000E+00  0.0000E+00  0.0000E+00  0.0000E+00  0.0000E+00  0.0000E+00  0.0000E+00  0.0000E+00  0.0000E+00  0.0000E+00  0.0000E+00  0.0000E+00  0.0000E+00  0.0000E+00  0.0000E+00  0.5543E+06  0.1676E+06  0.0000E+00  0.0000E+00
REACH    6        0   5.0  0.4274E+04  0.4162E+02  0.4158E+02  0.4054E-01  0.1098E+02  0.3940E+05  0.3122E+05  0.1643E+02  0.1380E+06  0.1149E+06  0.4503E+05  0.3330E+05  0.2445E+05  0.2686E+05  0.2535E+05  0.3545E+05  0.3333E+04  0.8748E+04  0.3180E+05  0.4161E+05  0.1564E+04  0.5586E+03  0.1081E+07  0.3027E+06  0.1156E+08  0.1254E+08  0.0000E+00  0.0000E+00  0.0000E+00  0.0000E+00  0.0000E+00  0.0000E+00  0.0000E+00  0.0000E+00  0.0000E+00  0.0000E+00  0.0000E+00  0.0000E+00  0.0000E+00  0.0000E+00  0.0000E+00  0.0000E+00  0.0000E+00  0.1860E+06  0.7491E+05  0.0000E+00  0.0000E+00
REACH    7        0   5.0  0.1876E+05  0.2156E+03  0.2156E+03  0.4467E-01  0.1278E+02  0.1821E+06  0.1821E+06  0.1861E+02  0.6818E+06  0.6416E+06  0.1694E+06  0.1542E+06  0.2920E+06  0.3065E+06  0.2243E+06  0.2316E+06  0.5770E+05  0.6803E+05  0.2725E+06  0.2854E+06  0.3357E+04  0.2727E+04  0.2058E+07  0.1340E+07  0.6281E+08  0.6735E+08  0.0000E+00  0.0000E+00  0.0000E+00  0.0000E+00  0.0000E+00  0.0000E+00  0.0000E+00  0.0000E+00  0.0000E+00  0.0000E+00  0.0000E+00  0.0000E+00  0.0000E+00  0.0000E+00  0.0000E+00  0.0000E+00  0.0000E+00  0.1248E+07  0.4396E+06  0.0000E+00  0.0000E+00
REACH    8        0   5.0  0.8185E+03  0.1003E+02  0.1001E+02  0.1095E-01  0.4543E+01  0.4773E+05  0.4773E+05  0.3672E+02  0.1208E+06  0.8848E+05  0.4233E+05  0.2574E+05  0.7694E+04  0.6347E+04  0.0000E+00  0.1895E+05  0.0000E+00  0.0000E+00  0.3920E+04  0.1006E+05  0.4670E+04  0.3184E+03  0.3948E+07  0.5732E+06  0.1823E+07  0.1742E+07  0.0000E+00  0.0000E+00  0.0000E+00  0.0000E+00  0.0000E+00  0.0000E+00  0.0000E+00  0.0000E+00  0.0000E+00  0.0000E+00  0.0000E+00  0.0000E+00  0.0000E+00  0.0000E+00  0.0000E+00  0.0000E+00  0.0000E+00  0.1138E+06  0.3580E+05  0.0000E+00  0.0000E+00
REACH    9        0   5.0  0.7907E+04  0.1051E+03  0.1051E+03  0.1089E-01  0.2979E+01  0.1471E+06  0.1053E+06  0.2158E+02  0.2799E+06  0.2727E+06  0.7314E+05  0.7035E+05  0.8637E+05  0.8956E+05  0.9971E+05  0.1004E+06  0.2865E+05  0.3006E+05  0.1250E+06  0.1272E+06  0.1410E+04  0.1294E+04  0.1340E+07  0.1103E+07  0.3143E+08  0.3263E+08  0.0000E+00  0.0000E+00  0.0000E+00  0.0000E+00  0.0000E+00  0.0000E+00  0.0000E+00  0.0000E+00  0.0000E+00  0.0000E+00  0.0000E+00  0.0000E+00  0.0000E+00  0.0000E+00  0.0000E+00  0.0000E+00  0.0000E+00  0.4928E+06  0.1976E+06  0.0000E+00  0.0000E+00
REACH   10        0   5.0  0.7875E+04  0.7906E+02  0.7903E+02  0.2676E-01  0.7395E+01  0.4380E+05  0.8933E+05  0.2259E+02  0.2719E+06  0.2561E+06  0.6578E+05  0.6007E+05  0.1925E+06  0.1965E+06  0.6618E+05  0.7109E+05  0.1580E+05  0.1887E+05  0.9671E+05  0.1014E+06  0.1197E+04  0.9975E+03  0.5591E+06  0.3747E+06  0.2405E+08  0.2500E+08  0.0000E+00  0.0000E+00  0.0000E+00  0.0000E+00  0.0000E+00  0.0000E+00  0.0000E+00  0.0000E+00  0.0000E+00  0.0000E+00  0.0000E+00  0.0000E+00  0.0000E+00  0.0000E+00  0.0000E+00  0.0000E+00  0.0000E+00  0.5425E+06  0.1615E+06  0.0000E+00  0.0000E+00
REACH   11        0   5.0  0.7315E+04  0.7310E+02  0.7307E+02  0.3161E-01  0.8246E+01  0.6920E+05  0.4160E+05  0.1313E+02  0.3071E+06  0.2664E+06  0.7975E+05  0.6411E+05  0.1857E+06  0.1877E+06  0.4873E+05  0.6501E+05  0.1034E+05  0.1580E+05  0.8127E+05  0.9295E+05  0.2084E+04  0.1169E+04  0.1325E+07  0.5244E+06  0.2059E+08  0.2233E+08  0.0000E+00  0.0000E+00  0.0000E+00  0.0000E+00  0.0000E+00  0.0000E+00  0.0000E+00  0.0000E+00  0.0000E+00  0.0000E+00  0.0000E+00  0.0000E+00  0.0000E+00  0.0000E+00  0.0000E+00  0.0000E+00  0.0000E+00  0.5349E+06  0.1571E+06  0.0000E+00  0.0000E+00
REACH   12        0   5.0  0.2522E+04  0.2638E+02  0.2636E+02  0.2054E-01  0.4693E+01  0.2086E+06  0.8751E+04  0.7644E+01  0.2599E+06  0.2239E+06  0.8020E+05  0.5963E+05  0.1656E+06  0.1576E+06  0.2543E+04  0.5823E+04  0.2503E+03  0.7390E+03  0.1460E+05  0.2677E+05  0.1499E+05  0.3316E+04  0.1318E+08  0.3187E+07  0.7990E+07  0.5738E+07  0.0000E+00  0.0000E+00  0.0000E+00  0.0000E+00  0.0000E+00  0.0000E+00  0.0000E+00  0.0000E+00  0.0000E+00  0.0000E+00  0.0000E+00  0.0000E+00  0.0000E+00  0.0000E+00  0.0000E+00  0.0000E+00  0.0000E+00  0.3880E+06  0.8640E+05  0.0000E+00  0.0000E+00
REACH   13        0   5.0  0.1667E+04  0.1730E+02  0.1729E+02  0.1058E-01  0.2816E+01  0.2484E+04  0.1380E+05  0.1623E+02  0.8524E+04  0.7834E+04  0.2652E+04  0.2322E+04  0.1308E+05  0.1309E+05  0.1477E+04  0.1844E+04  0.0000E+00  0.2503E+03  0.9195E+04  0.9440E+04  0.9710E+02  0.6280E+02  0.7423E+05  0.4081E+05  0.5407E+07  0.5455E+07  0.0000E+00  0.0000E+00  0.0000E+00  0.0000E+00  0.0000E+00  0.0000E+00  0.0000E+00  0.0000E+00  0.0000E+00  0.0000E+00  0.0000E+00  0.0000E+00  0.0000E+00  0.0000E+00  0.0000E+00  0.0000E+00  0.0000E+00  0.2302E+05  0.1176E+05  0.0000E+00  0.0000E+00
REACH   14        0   5.0  0.3021E+04  0.3136E+02  0.3133E+02  0.3148E-01  0.9916E+01  0.9814E+04  0.3784E+05  0.2229E+02  0.2275E+06  0.1917E+06  0.6094E+05  0.4630E+05  0.1603E+06  0.1587E+06  0.5964E+04  0.1328E+05  0.7390E+03  0.1588E+04  0.2930E+05  0.3960E+05  0.3467E+04  0.1506E+04  0.3248E+07  0.1008E+07  0.7284E+07  0.7992E+07  0.0000E+00  0.0000E+00  0.0000E+00  0.0000E+00  0.0000E+00  0.0000E+00  0.0000E+00  0.0000E+00  0.0000E+00  0.0000E+00  0.0000E+00  0.0000E+00  0.0000E+00  0.0000E+00  0.0000E+00  0.0000E+00  0.0000E+00  0.3653E+06  0.8590E+05  0.0000E+00  0.0000E+00
REACH   15        0   5.0  0.1079E+05  0.1101E+03  0.1099E+03  0.1924E+00  0.7426E+02  0.1858E+06  0.7565E+05  0.1474E+02  0.5713E+06  0.4065E+06  0.1637E+06  0.9807E+05  0.2217E+06  0.2023E+06  0.7229E+05  0.1239E+06  0.1917E+05  0.2763E+05  0.1150E+06  0.1451E+06  0.1256E+05  0.1973E+04  0.6521E+07  0.8743E+06  0.3241E+08  0.3001E+08  0.0000E+00  0.0000E+00  0.0000E+00  0.0000E+00  0.0000E+00  0.0000E+00  0.0000E+00  0.0000E+00  0.0000E+00  0.0000E+00  0.0000E+00  0.0000E+00  0.0000E+00  0.0000E+00  0.0000E+00  0.0000E+00  0.0000E+00  0.7603E+06  0.2432E+06  0.0000E+00  0.0000E+00
REACH   16        0   5.0  0.5981E+03  0.5982E+01  0.5976E+01  0.5897E-02  0.2336E+01  0.2273E+04  0.2273E+04  0.2208E+01  0.8657E+04  0.7779E+04  0.3109E+04  0.2594E+04  0.2576E+04  0.2506E+04  0.0000E+00  0.7746E+03  0.0000E+00  0.0000E+00  0.2851E+04  0.3192E+04  0.3558E+03  0.1452E+03  0.1662E+06  0.7475E+05  0.1866E+07  0.1742E+07  0.0000E+00  0.0000E+00  0.0000E+00  0.0000E+00  0.0000E+00  0.0000E+00  0.0000E+00  0.0000E+00  0.0000E+00  0.0000E+00  0.0000E+00  0.0000E+00  0.0000E+00  0.0000E+00  0.0000E+00  0.0000E+00  0.0000E+00  0.1106E+05  0.5786E+04  0.0000E+00  0.0000E+00
REACH   17        0   5.0  0.3904E+03  0.3828E+01  0.3824E+01  0.4180E-02  0.1252E+01  0.4897E+03  0.4897E+03  0.9392E+00  0.1850E+04  0.1759E+04  0.7196E+03  0.6507E+03  0.1780E+04  0.1765E+04  0.0000E+00  0.1410E+03  0.0000E+00  0.0000E+00  0.1803E+04  0.1853E+04  0.1081E+03  0.5461E+02  0.2864E+05  0.1750E+05  0.1214E+07  0.1197E+07  0.0000E+00  0.0000E+00  0.0000E+00  0.0000E+00  0.0000E+00  0.0000E+00  0.0000E+00  0.0000E+00  0.0000E+00  0.0000E+00  0.0000E+00  0.0000E+00  0.0000E+00  0.0000E+00  0.0000E+00  0.0000E+00  0.0000E+00  0.3665E+04  0.2503E+04  0.0000E+00  0.0000E+00
REACH   18        0   5.0  0.6898E+04  0.9294E+02  0.9287E+02  0.7506E-01  0.2001E+02  0.8529E+05  0.9060E+05  0.2131E+02  0.2132E+06  0.1742E+06  0.5613E+05  0.4070E+05  0.6254E+05  0.7916E+05  0.7773E+05  0.8075E+05  0.2017E+05  0.2865E+05  0.1018E+06  0.1142E+06  0.1177E+04  0.4549E+03  0.6976E+06  0.1797E+06  0.2848E+08  0.2922E+08  0.0000E+00  0.0000E+00  0.0000E+00  0.0000E+00  0.0000E+00  0.0000E+00  0.0000E+00  0.0000E+00  0.0000E+00  0.0000E+00  0.0000E+00  0.0000E+00  0.0000E+00  0.0000E+00  0.0000E+00  0.0000E+00  0.0000E+00  0.3628E+06  0.1549E+06  0.0000E+00  0.0000E+00
REACH   19        0   5.0  0.9547E+03  0.9451E+01  0.9446E+01  0.6066E-02  0.7603E+01  0.3252E+04  0.3252E+04  0.2335E+01  0.9974E+04  0.7232E+04  0.3765E+04  0.2264E+04  0.6113E+03  0.5259E+03  0.0000E+00  0.1744E+04  0.0000E+00  0.0000E+00  0.1802E+04  0.2603E+04  0.2942E+03  0.6951E+01  0.2099E+06  0.3091E+05  0.3227E+07  0.3145E+07  0.0000E+00  0.0000E+00  0.0000E+00  0.0000E+00  0.0000E+00  0.0000E+00  0.0000E+00  0.0000E+00  0.0000E+00  0.0000E+00  0.0000E+00  0.0000E+00  0.0000E+00  0.0000E+00  0.0000E+00  0.0000E+00  0.0000E+00  0.9501E+04  0.4867E+04  0.0000E+00  0.0000E+00
REACH   20        0   5.0  0.5457E+03  0.5848E+01  0.5841E+01  0.7583E-02  0.2930E+01  0.2133E+04  0.2133E+04  0.2575E+01  0.6630E+04  0.5076E+04  0.2513E+04  0.1572E+04  0.5036E+04  0.4638E+04  0.0000E+00  0.1171E+04  0.0000E+00  0.0000E+00  0.3335E+04  0.3683E+04  0.4024E+03  0.8203E+01  0.1476E+06  0.2274E+05  0.1785E+07  0.1682E+07  0.0000E+00  0.0000E+00  0.0000E+00  0.0000E+00  0.0000E+00  0.0000E+00  0.0000E+00  0.0000E+00  0.0000E+00  0.0000E+00  0.0000E+00  0.0000E+00  0.0000E+00  0.0000E+00  0.0000E+00  0.0000E+00  0.0000E+00  0.1088E+05  0.5256E+04  0.0000E+00  0.0000E+00
REACH   21        0   5.0  0.6738E+03  0.7222E+01  0.7213E+01  0.9305E-02  0.3301E+01  0.7952E+03  0.7952E+03  0.9981E+00  0.3427E+04  0.2954E+04  0.1229E+04  0.8674E+03  0.5514E+04  0.5245E+04  0.0000E+00  0.6997E+03  0.0000E+00  0.0000E+00  0.4326E+04  0.4447E+04  0.2922E+03  0.8779E+01  0.5157E+05  0.9739E+04  0.2257E+07  0.2200E+07  0.0000E+00  0.0000E+00  0.0000E+00  0.0000E+00  0.0000E+00  0.0000E+00  0.0000E+00  0.0000E+00  0.0000E+00  0.0000E+00  0.0000E+00  0.0000E+00  0.0000E+00  0.0000E+00  0.0000E+00  0.0000E+00  0.0000E+00  0.8898E+04  0.5314E+04  0.0000E+00  0.0000E+00
REACH   22        0   5.0  0.5769E+04  0.8139E+02  0.8135E+02  0.4352E-01  0.1144E+02  0.7065E+05  0.7905E+05  0.2049E+02  0.2266E+06  0.1982E+06  0.6286E+05  0.5095E+05  0.5362E+05  0.6057E+05  0.7026E+05  0.7599E+05  0.1227E+05  0.2017E+05  0.8865E+05  0.9817E+05  0.1471E+04  0.8360E+03  0.1167E+07  0.4532E+06  0.2398E+08  0.2479E+08  0.0000E+00  0.0000E+00  0.0000E+00  0.0000E+00  0.0000E+00  0.0000E+00  0.0000E+00  0.0000E+00  0.0000E+00  0.0000E+00  0.0000E+00  0.0000E+00  0.0000E+00  0.0000E+00  0.0000E+00  0.0000E+00  0.0000E+00  0.3549E+06  0.1491E+06  0.0000E+00  0.0000E+00
REACH   23        0   5.0  0.4669E+04  0.6998E+02  0.6998E+02  0.3528E-02  0.9042E+00  0.8510E+05  0.5722E+05  0.1738E+02  0.2051E+06  0.2026E+06  0.6082E+05  0.5969E+05  0.4705E+05  0.4725E+05  0.4878E+05  0.4959E+05  0.3504E+04  0.4355E+04  0.6542E+05  0.6629E+05  0.1375E+04  0.1316E+04  0.1108E+07  0.1011E+07  0.1917E+08  0.2116E+08  0.0000E+00  0.0000E+00  0.0000E+00  0.0000E+00  0.0000E+00  0.0000E+00  0.0000E+00  0.0000E+00  0.0000E+00  0.0000E+00  0.0000E+00  0.0000E+00  0.0000E+00  0.0000E+00  0.0000E+00  0.0000E+00  0.0000E+00  0.3038E+06  0.1260E+06  0.0000E+00  0.0000E+00
REACH   24        0   5.0  0.5126E+04  0.7454E+02  0.7446E+02  0.7818E-01  0.2011E+02  0.7402E+05  0.5632E+05  0.1673E+02  0.2429E+06  0.1884E+06  0.7395E+05  0.4893E+05  0.4764E+05  0.5186E+05  0.4959E+05  0.6868E+05  0.4355E+04  0.1227E+05  0.6697E+05  0.8568E+05  0.2550E+04  0.5138E+03  0.2230E+07  0.3971E+06  0.2254E+08  0.2213E+08  0.0000E+00  0.0000E+00  0.0000E+00  0.0000E+00  0.0000E+00  0.0000E+00  0.0000E+00  0.0000E+00  0.0000E+00  0.0000E+00  0.0000E+00  0.0000E+00  0.0000E+00  0.0000E+00  0.0000E+00  0.0000E+00  0.0000E+00  0.3212E+06  0.1346E+06  0.0000E+00  0.0000E+00
REACH   25        0   5.0  0.4107E+03  0.4203E+01  0.4196E+01  0.6500E-02  0.1736E+01  0.4780E+04  0.4780E+04  0.9438E+01  0.1892E+05  0.1699E+05  0.6715E+04  0.5619E+04  0.4368E+03  0.3941E+03  0.0000E+00  0.1579E+04  0.0000E+00  0.0000E+00  0.1075E+04  0.1926E+04  0.5111E+03  0.1628E+03  0.2944E+06  0.1301E+06  0.1289E+07  0.1242E+07  0.0000E+00  0.0000E+00  0.0000E+00  0.0000E+00  0.0000E+00  0.0000E+00  0.0000E+00  0.0000E+00  0.0000E+00  0.0000E+00  0.0000E+00  0.0000E+00  0.0000E+00  0.0000E+00  0.0000E+00  0.0000E+00  0.0000E+00  0.1896E+05  0.7545E+04  0.0000E+00  0.0000E+00
REACH   26        0   5.0  0.1922E+04  0.2987E+02  0.2985E+02  0.3048E-01  0.1190E+02  0.1910E+05  0.3838E+05  0.2354E+02  0.5456E+05  0.4237E+05  0.1895E+05  0.1237E+05  0.1849E+05  0.1776E+05  0.4620E+04  0.1153E+05  0.0000E+00  0.1890E+04  0.1794E+05  0.2235E+05  0.1346E+04  0.1230E+03  0.7299E+06  0.1243E+06  0.8398E+07  0.8790E+07  0.0000E+00  0.0000E+00  0.0000E+00  0.0000E+00  0.0000E+00  0.0000E+00  0.0000E+00  0.0000E+00  0.0000E+00  0.0000E+00  0.0000E+00  0.0000E+00  0.0000E+00  0.0000E+00  0.0000E+00  0.0000E+00  0.0000E+00  0.7356E+05  0.3472E+05  0.0000E+00  0.0000E+00
REACH   27        0   5.0  0.3795E+03  0.5949E+01  0.5948E+01  0.3395E-02  0.1490E+01  0.4482E+04  0.4482E+04  0.4830E+01  0.1404E+05  0.1305E+05  0.5156E+04  0.4560E+04  0.3968E+04  0.3900E+04  0.0000E+00  0.8258E+03  0.0000E+00  0.0000E+00  0.3158E+04  0.3559E+04  0.6381E+03  0.3483E+03  0.3246E+06  0.1824E+06  0.1698E+07  0.1574E+07  0.0000E+00  0.0000E+00  0.0000E+00  0.0000E+00  0.0000E+00  0.0000E+00  0.0000E+00  0.0000E+00  0.0000E+00  0.0000E+00  0.0000E+00  0.0000E+00  0.0000E+00  0.0000E+00  0.0000E+00  0.0000E+00  0.0000E+00  0.1778E+05  0.8120E+04  0.0000E+00  0.0000E+00
REACH   28        0   5.0  0.1402E+04  0.1497E+02  0.1496E+02  0.1894E-01  0.7244E+01  0.1877E+04  0.1877E+04  0.1225E+01  0.7032E+04  0.6073E+04  0.2735E+04  0.1883E+04  0.1347E+05  0.1256E+05  0.0000E+00  0.1477E+04  0.0000E+00  0.0000E+00  0.8121E+04  0.8523E+04  0.6715E+03  0.8052E+01  0.1036E+06  0.1695E+05  0.4483E+07  0.4624E+07  0.0000E+00  0.0000E+00  0.0000E+00  0.0000E+00  0.0000E+00  0.0000E+00  0.0000E+00  0.0000E+00  0.0000E+00  0.0000E+00  0.0000E+00  0.0000E+00  0.0000E+00  0.0000E+00  0.0000E+00  0.0000E+00  0.0000E+00  0.2011E+05  0.1041E+05  0.0000E+00  0.0000E+00
REACH   29        0   5.0  0.2745E+04  0.4014E+02  0.4011E+02  0.3817E-01  0.9918E+01  0.9804E+05  0.4669E+05  0.2215E+02  0.1911E+06  0.1627E+06  0.6325E+05  0.4843E+05  0.2849E+05  0.2849E+05  0.2114E+05  0.3725E+05  0.5375E+03  0.1614E+04  0.3096E+05  0.4306E+05  0.3197E+04  0.1223E+04  0.3135E+07  0.9819E+06  0.1065E+08  0.1038E+08  0.0000E+00  0.0000E+00  0.0000E+00  0.0000E+00  0.0000E+00  0.0000E+00  0.0000E+00  0.0000E+00  0.0000E+00  0.0000E+00  0.0000E+00  0.0000E+00  0.0000E+00  0.0000E+00  0.0000E+00  0.0000E+00  0.0000E+00  0.2300E+06  0.9149E+05  0.0000E+00  0.0000E+00
REACH   30        0   5.0  0.1951E+04  0.3049E+02  0.3048E+02  0.1241E-01  0.3457E+01  0.4064E+05  0.4233E+05  0.2492E+02  0.6923E+05  0.6572E+05  0.2267E+05  0.2089E+05  0.2111E+05  0.2115E+05  0.7063E+04  0.9177E+04  0.1792E+03  0.5375E+03  0.2116E+05  0.2259E+05  0.9521E+03  0.7503E+03  0.7540E+06  0.5132E+06  0.8276E+07  0.8880E+07  0.0000E+00  0.0000E+00  0.0000E+00  0.0000E+00  0.0000E+00  0.0000E+00  0.0000E+00  0.0000E+00  0.0000E+00  0.0000E+00  0.0000E+00  0.0000E+00  0.0000E+00  0.0000E+00  0.0000E+00  0.0000E+00  0.0000E+00  0.9658E+05  0.4348E+05  0.0000E+00  0.0000E+00
REACH   31        0   5.0  0.9692E+03  0.1518E+02  0.1517E+02  0.1440E-01  0.5489E+01  0.8386E+04  0.8386E+04  0.3998E+01  0.2531E+05  0.2091E+05  0.9431E+04  0.6649E+04  0.1041E+05  0.9821E+04  0.0000E+00  0.3794E+04  0.0000E+00  0.0000E+00  0.8332E+04  0.1016E+05  0.1257E+04  0.1454E+03  0.5867E+06  0.1290E+06  0.4505E+07  0.4255E+07  0.0000E+00  0.0000E+00  0.0000E+00  0.0000E+00  0.0000E+00  0.0000E+00  0.0000E+00  0.0000E+00  0.0000E+00  0.0000E+00  0.0000E+00  0.0000E+00  0.0000E+00  0.0000E+00  0.0000E+00  0.0000E+00  0.0000E+00  0.3453E+05  0.1681E+05  0.0000E+00  0.0000E+00
REACH   32        0   5.0  0.4648E+03  0.7302E+01  0.7299E+01  0.5262E-02  0.1579E+01  0.6309E+04  0.6309E+04  0.5775E+01  0.1969E+05  0.1866E+05  0.7431E+04  0.6756E+04  0.5377E+04  0.5320E+04  0.0000E+00  0.9732E+03  0.0000E+00  0.0000E+00  0.3588E+04  0.4116E+04  0.8818E+03  0.5454E+03  0.4424E+06  0.2783E+06  0.2019E+07  0.1890E+07  0.0000E+00  0.0000E+00  0.0000E+00  0.0000E+00  0.0000E+00  0.0000E+00  0.0000E+00  0.0000E+00  0.0000E+00  0.0000E+00  0.0000E+00  0.0000E+00  0.0000E+00  0.0000E+00  0.0000E+00  0.0000E+00  0.0000E+00  0.2495E+05  0.1087E+05  0.0000E+00  0.0000E+00
REACH   33        0   5.0  0.6036E+03  0.7340E+01  0.7330E+01  0.9528E-02  0.3115E+01  0.2930E+05  0.2930E+05  0.3009E+02  0.7993E+05  0.6381E+05  0.3120E+05  0.2116E+05  0.6442E+04  0.5529E+04  0.0000E+00  0.1196E+05  0.0000E+00  0.0000E+00  0.2811E+04  0.7528E+04  0.3027E+04  0.1451E+03  0.1959E+07  0.3849E+06  0.1461E+07  0.1425E+07  0.0000E+00  0.0000E+00  0.0000E+00  0.0000E+00  0.0000E+00  0.0000E+00  0.0000E+00  0.0000E+00  0.0000E+00  0.0000E+00  0.0000E+00  0.0000E+00  0.0000E+00  0.0000E+00  0.0000E+00  0.0000E+00  0.0000E+00  0.8130E+05  0.2868E+05  0.0000E+00  0.0000E+00
REACH   34        0   5.0  0.1464E+04  0.2285E+02  0.2283E+02  0.2655E-01  0.1106E+02  0.1781E+05  0.2962E+05  0.2273E+02  0.5757E+05  0.4323E+05  0.2085E+05  0.1305E+05  0.1626E+05  0.1548E+05  0.2215E+04  0.6090E+04  0.5955E+02  0.1792E+03  0.1274E+05  0.1692E+05  0.2070E+04  0.1199E+03  0.1044E+07  0.1570E+06  0.6084E+07  0.6339E+07  0.0000E+00  0.0000E+00  0.0000E+00  0.0000E+00  0.0000E+00  0.0000E+00  0.0000E+00  0.0000E+00  0.0000E+00  0.0000E+00  0.0000E+00  0.0000E+00  0.0000E+00  0.0000E+00  0.0000E+00  0.0000E+00  0.0000E+00  0.6498E+05  0.2997E+05  0.0000E+00  0.0000E+00
REACH   35        0   5.0  0.5003E+03  0.7775E+01  0.7772E+01  0.4876E-02  0.1469E+01  0.5261E+04  0.5261E+04  0.3807E+01  0.1398E+05  0.1328E+05  0.5276E+04  0.4833E+04  0.5718E+04  0.5703E+04  0.0000E+00  0.5983E+03  0.0000E+00  0.0000E+00  0.4089E+04  0.4370E+04  0.7034E+03  0.4834E+03  0.3687E+06  0.2444E+06  0.2218E+07  0.2089E+07  0.0000E+00  0.0000E+00  0.0000E+00  0.0000E+00  0.0000E+00  0.0000E+00  0.0000E+00  0.0000E+00  0.0000E+00  0.0000E+00  0.0000E+00  0.0000E+00  0.0000E+00  0.0000E+00  0.0000E+00  0.0000E+00  0.0000E+00  0.1958E+05  0.9203E+04  0.0000E+00  0.0000E+00
REACH   36        0   5.0  0.5412E+03  0.8445E+01  0.8442E+01  0.3088E-02  0.8227E+00  0.1107E+05  0.7403E+04  0.1533E+02  0.2854E+05  0.2738E+05  0.1033E+05  0.9678E+04  0.5751E+04  0.5727E+04  0.8565E+03  0.1616E+04  0.0000E+00  0.5955E+02  0.4579E+04  0.5012E+04  0.1017E+04  0.8265E+03  0.5962E+06  0.4432E+06  0.1967E+07  0.2105E+07  0.0000E+00  0.0000E+00  0.0000E+00  0.0000E+00  0.0000E+00  0.0000E+00  0.0000E+00  0.0000E+00  0.0000E+00  0.0000E+00  0.0000E+00  0.0000E+00  0.0000E+00  0.0000E+00  0.0000E+00  0.0000E+00  0.0000E+00  0.3479E+05  0.1469E+05  0.0000E+00  0.0000E+00
REACH   37        0   5.0  0.5332E+03  0.8324E+01  0.8320E+01  0.3402E-02  0.9185E+00  0.1097E+05  0.1097E+05  0.7480E+01  0.2941E+05  0.2832E+05  0.1090E+05  0.1025E+05  0.5692E+04  0.5657E+04  0.0000E+00  0.8565E+03  0.0000E+00  0.0000E+00  0.4054E+04  0.4513E+04  0.1266E+04  0.1005E+04  0.7916E+06  0.5892E+06  0.2121E+07  0.1932E+07  0.0000E+00  0.0000E+00  0.0000E+00  0.0000E+00  0.0000E+00  0.0000E+00  0.0000E+00  0.0000E+00  0.0000E+00  0.0000E+00  0.0000E+00  0.0000E+00  0.0000E+00  0.0000E+00  0.0000E+00  0.0000E+00  0.0000E+00  0.3483E+05  0.1476E+05  0.0000E+00  0.0000E+00
